Timing for processing wrfinput file (stream 0) for domain        1:    3.14394 elapsed seconds
Timing for Writing wrfout_d01_2014-03-10_00:00:00 for domain        1:   12.33956 elapsed seconds
Timing for processing lateral boundary for domain        1:    6.07271 elapsed seconds
Timing for main: time 2014-03-10_00:01:00 on domain   1:   27.78748 elapsed seconds
Timing for main: time 2014-03-10_00:02:00 on domain   1:    1.67534 elapsed seconds
Timing for main: time 2014-03-10_00:03:00 on domain   1:    2.16680 elapsed seconds
Timing for main: time 2014-03-10_00:04:00 on domain   1:    2.16403 elapsed seconds
Timing for main: time 2014-03-10_00:05:00 on domain   1:    2.13861 elapsed seconds
Timing for main: time 2014-03-10_00:06:00 on domain   1:   16.37175 elapsed seconds
Timing for main: time 2014-03-10_00:07:00 on domain   1:    2.29176 elapsed seconds
Timing for main: time 2014-03-10_00:08:00 on domain   1:    2.14013 elapsed seconds
Timing for main: time 2014-03-10_00:09:00 on domain   1:    2.17550 elapsed seconds
Timing for main: time 2014-03-10_00:10:00 on domain   1:    2.15165 elapsed seconds
Timing for main: time 2014-03-10_00:11:00 on domain   1:    2.16740 elapsed seconds
Timing for main: time 2014-03-10_00:12:00 on domain   1:   18.53092 elapsed seconds
Timing for main: time 2014-03-10_00:13:00 on domain   1:    2.29649 elapsed seconds
Timing for main: time 2014-03-10_00:14:00 on domain   1:    2.15417 elapsed seconds
Timing for main: time 2014-03-10_00:15:00 on domain   1:    2.44558 elapsed seconds
Timing for main: time 2014-03-10_00:16:00 on domain   1:    2.22478 elapsed seconds
Timing for main: time 2014-03-10_00:17:00 on domain   1:    2.15233 elapsed seconds
Timing for main: time 2014-03-10_00:18:00 on domain   1:   18.30675 elapsed seconds
Timing for main: time 2014-03-10_00:19:00 on domain   1:    2.36016 elapsed seconds
Timing for main: time 2014-03-10_00:20:00 on domain   1:    2.12507 elapsed seconds
Timing for main: time 2014-03-10_00:21:00 on domain   1:    2.14566 elapsed seconds
Timing for main: time 2014-03-10_00:22:00 on domain   1:    2.15861 elapsed seconds
Timing for main: time 2014-03-10_00:23:00 on domain   1:    2.12899 elapsed seconds
Timing for main: time 2014-03-10_00:24:00 on domain   1:   18.32409 elapsed seconds
Timing for main: time 2014-03-10_00:25:00 on domain   1:    2.36730 elapsed seconds
Timing for main: time 2014-03-10_00:26:00 on domain   1:    2.14247 elapsed seconds
Timing for main: time 2014-03-10_00:27:00 on domain   1:    2.14515 elapsed seconds
Timing for main: time 2014-03-10_00:28:00 on domain   1:    2.14761 elapsed seconds
Timing for main: time 2014-03-10_00:29:00 on domain   1:    2.14474 elapsed seconds
Timing for main: time 2014-03-10_00:30:00 on domain   1:   18.67953 elapsed seconds
Timing for main: time 2014-03-10_00:31:00 on domain   1:    2.34972 elapsed seconds
Timing for main: time 2014-03-10_00:32:00 on domain   1:    2.14395 elapsed seconds
Timing for main: time 2014-03-10_00:33:00 on domain   1:    2.14400 elapsed seconds
Timing for main: time 2014-03-10_00:34:00 on domain   1:    2.13688 elapsed seconds
Timing for main: time 2014-03-10_00:35:00 on domain   1:    2.16776 elapsed seconds
Timing for main: time 2014-03-10_00:36:00 on domain   1:   18.32202 elapsed seconds
Timing for main: time 2014-03-10_00:37:00 on domain   1:    2.35063 elapsed seconds
Timing for main: time 2014-03-10_00:38:00 on domain   1:    2.13844 elapsed seconds
Timing for main: time 2014-03-10_00:39:00 on domain   1:    2.14864 elapsed seconds
Timing for main: time 2014-03-10_00:40:00 on domain   1:    2.18702 elapsed seconds
Timing for main: time 2014-03-10_00:41:00 on domain   1:    2.11591 elapsed seconds
Timing for main: time 2014-03-10_00:42:00 on domain   1:   18.36535 elapsed seconds
Timing for main: time 2014-03-10_00:43:00 on domain   1:    2.30585 elapsed seconds
Timing for main: time 2014-03-10_00:44:00 on domain   1:    2.16341 elapsed seconds
Timing for main: time 2014-03-10_00:45:00 on domain   1:    2.43408 elapsed seconds
Timing for main: time 2014-03-10_00:46:00 on domain   1:    2.23109 elapsed seconds
Timing for main: time 2014-03-10_00:47:00 on domain   1:    2.14847 elapsed seconds
Timing for main: time 2014-03-10_00:48:00 on domain   1:   18.33001 elapsed seconds
Timing for main: time 2014-03-10_00:49:00 on domain   1:    2.56943 elapsed seconds
Timing for main: time 2014-03-10_00:50:00 on domain   1:    2.15901 elapsed seconds
Timing for main: time 2014-03-10_00:51:00 on domain   1:    2.13965 elapsed seconds
Timing for main: time 2014-03-10_00:52:00 on domain   1:    2.14185 elapsed seconds
Timing for main: time 2014-03-10_00:53:00 on domain   1:    2.14898 elapsed seconds
Timing for main: time 2014-03-10_00:54:00 on domain   1:   18.32996 elapsed seconds
Timing for main: time 2014-03-10_00:55:00 on domain   1:    2.36233 elapsed seconds
Timing for main: time 2014-03-10_00:56:00 on domain   1:    2.14513 elapsed seconds
Timing for main: time 2014-03-10_00:57:00 on domain   1:    2.14468 elapsed seconds
Timing for main: time 2014-03-10_00:58:00 on domain   1:    2.14494 elapsed seconds
Timing for main: time 2014-03-10_00:59:00 on domain   1:    2.15154 elapsed seconds
Timing for main: time 2014-03-10_01:00:00 on domain   1:   18.62416 elapsed seconds
Timing for Writing wrfout_d01_2014-03-10_01:00:00 for domain        1:   10.49265 elapsed seconds
Timing for main: time 2014-03-10_01:01:00 on domain   1:   12.50271 elapsed seconds
Timing for main: time 2014-03-10_01:02:00 on domain   1:    2.16034 elapsed seconds
Timing for main: time 2014-03-10_01:03:00 on domain   1:    2.15645 elapsed seconds
Timing for main: time 2014-03-10_01:04:00 on domain   1:    2.15309 elapsed seconds
Timing for main: time 2014-03-10_01:05:00 on domain   1:    2.15864 elapsed seconds
Timing for main: time 2014-03-10_01:06:00 on domain   1:   18.51402 elapsed seconds
Timing for main: time 2014-03-10_01:07:00 on domain   1:    2.25286 elapsed seconds
Timing for main: time 2014-03-10_01:08:00 on domain   1:    2.18597 elapsed seconds
Timing for main: time 2014-03-10_01:09:00 on domain   1:    2.18823 elapsed seconds
Timing for main: time 2014-03-10_01:10:00 on domain   1:    2.23760 elapsed seconds
Timing for main: time 2014-03-10_01:11:00 on domain   1:    2.17388 elapsed seconds
Timing for main: time 2014-03-10_01:12:00 on domain   1:   18.38672 elapsed seconds
Timing for main: time 2014-03-10_01:13:00 on domain   1:    2.40362 elapsed seconds
Timing for main: time 2014-03-10_01:14:00 on domain   1:    2.17208 elapsed seconds
Timing for main: time 2014-03-10_01:15:00 on domain   1:    2.48912 elapsed seconds
Timing for main: time 2014-03-10_01:16:00 on domain   1:    2.78439 elapsed seconds
Timing for main: time 2014-03-10_01:17:00 on domain   1:    2.16111 elapsed seconds
Timing for main: time 2014-03-10_01:18:00 on domain   1:   18.42025 elapsed seconds
Timing for main: time 2014-03-10_01:19:00 on domain   1:    2.34214 elapsed seconds
Timing for main: time 2014-03-10_01:20:00 on domain   1:    2.18993 elapsed seconds
Timing for main: time 2014-03-10_01:21:00 on domain   1:    2.17524 elapsed seconds
Timing for main: time 2014-03-10_01:22:00 on domain   1:    2.17715 elapsed seconds
Timing for main: time 2014-03-10_01:23:00 on domain   1:    2.17875 elapsed seconds
Timing for main: time 2014-03-10_01:24:00 on domain   1:   18.40512 elapsed seconds
Timing for main: time 2014-03-10_01:25:00 on domain   1:    2.33029 elapsed seconds
Timing for main: time 2014-03-10_01:26:00 on domain   1:    2.18773 elapsed seconds
Timing for main: time 2014-03-10_01:27:00 on domain   1:    2.20148 elapsed seconds
Timing for main: time 2014-03-10_01:28:00 on domain   1:    2.15635 elapsed seconds
Timing for main: time 2014-03-10_01:29:00 on domain   1:    2.17692 elapsed seconds
Timing for main: time 2014-03-10_01:30:00 on domain   1:   18.69060 elapsed seconds
Timing for main: time 2014-03-10_01:31:00 on domain   1:    2.44903 elapsed seconds
Timing for main: time 2014-03-10_01:32:00 on domain   1:    2.21703 elapsed seconds
Timing for main: time 2014-03-10_01:33:00 on domain   1:    2.20726 elapsed seconds
Timing for main: time 2014-03-10_01:34:00 on domain   1:    2.19975 elapsed seconds
Timing for main: time 2014-03-10_01:35:00 on domain   1:    2.22053 elapsed seconds
Timing for main: time 2014-03-10_01:36:00 on domain   1:   18.37595 elapsed seconds
Timing for main: time 2014-03-10_01:37:00 on domain   1:    2.37308 elapsed seconds
Timing for main: time 2014-03-10_01:38:00 on domain   1:    2.21083 elapsed seconds
Timing for main: time 2014-03-10_01:39:00 on domain   1:    2.20697 elapsed seconds
Timing for main: time 2014-03-10_01:40:00 on domain   1:    2.20677 elapsed seconds
Timing for main: time 2014-03-10_01:41:00 on domain   1:    2.21638 elapsed seconds
Timing for main: time 2014-03-10_01:42:00 on domain   1:   18.43689 elapsed seconds
Timing for main: time 2014-03-10_01:43:00 on domain   1:    2.32973 elapsed seconds
Timing for main: time 2014-03-10_01:44:00 on domain   1:    2.19991 elapsed seconds
Timing for main: time 2014-03-10_01:45:00 on domain   1:    2.51569 elapsed seconds
Timing for main: time 2014-03-10_01:46:00 on domain   1:    2.29408 elapsed seconds
Timing for main: time 2014-03-10_01:47:00 on domain   1:    2.20951 elapsed seconds
Timing for main: time 2014-03-10_01:48:00 on domain   1:   18.68408 elapsed seconds
Timing for main: time 2014-03-10_01:49:00 on domain   1:    2.07950 elapsed seconds
Timing for main: time 2014-03-10_01:50:00 on domain   1:    2.22834 elapsed seconds
Timing for main: time 2014-03-10_01:51:00 on domain   1:    2.18732 elapsed seconds
Timing for main: time 2014-03-10_01:52:00 on domain   1:    2.22184 elapsed seconds
Timing for main: time 2014-03-10_01:53:00 on domain   1:    2.19676 elapsed seconds
Timing for main: time 2014-03-10_01:54:00 on domain   1:   18.54577 elapsed seconds
Timing for main: time 2014-03-10_01:55:00 on domain   1:    2.19720 elapsed seconds
Timing for main: time 2014-03-10_01:56:00 on domain   1:    2.20954 elapsed seconds
Timing for main: time 2014-03-10_01:57:00 on domain   1:    2.20860 elapsed seconds
Timing for main: time 2014-03-10_01:58:00 on domain   1:    2.20607 elapsed seconds
Timing for main: time 2014-03-10_01:59:00 on domain   1:    2.21487 elapsed seconds
Timing for main: time 2014-03-10_02:00:00 on domain   1:   18.66879 elapsed seconds
Timing for Writing wrfout_d01_2014-03-10_02:00:00 for domain        1:   10.96731 elapsed seconds
Timing for main: time 2014-03-10_02:01:00 on domain   1:   12.99120 elapsed seconds
Timing for main: time 2014-03-10_02:02:00 on domain   1:    2.18748 elapsed seconds
Timing for main: time 2014-03-10_02:03:00 on domain   1:    2.19386 elapsed seconds
Timing for main: time 2014-03-10_02:04:00 on domain   1:    2.19370 elapsed seconds
Timing for main: time 2014-03-10_02:05:00 on domain   1:    2.19960 elapsed seconds
Timing for main: time 2014-03-10_02:06:00 on domain   1:   18.59945 elapsed seconds
Timing for main: time 2014-03-10_02:07:00 on domain   1:    2.19588 elapsed seconds
Timing for main: time 2014-03-10_02:08:00 on domain   1:    2.22365 elapsed seconds
Timing for main: time 2014-03-10_02:09:00 on domain   1:    2.20858 elapsed seconds
Timing for main: time 2014-03-10_02:10:00 on domain   1:    2.22227 elapsed seconds
Timing for main: time 2014-03-10_02:11:00 on domain   1:    2.21014 elapsed seconds
Timing for main: time 2014-03-10_02:12:00 on domain   1:   18.44937 elapsed seconds
Timing for main: time 2014-03-10_02:13:00 on domain   1:    2.29115 elapsed seconds
Timing for main: time 2014-03-10_02:14:00 on domain   1:    2.21504 elapsed seconds
Timing for main: time 2014-03-10_02:15:00 on domain   1:    2.52381 elapsed seconds
Timing for main: time 2014-03-10_02:16:00 on domain   1:    2.30142 elapsed seconds
Timing for main: time 2014-03-10_02:17:00 on domain   1:    2.21667 elapsed seconds
Timing for main: time 2014-03-10_02:18:00 on domain   1:   18.60932 elapsed seconds
Timing for main: time 2014-03-10_02:19:00 on domain   1:    2.13228 elapsed seconds
Timing for main: time 2014-03-10_02:20:00 on domain   1:    2.22291 elapsed seconds
Timing for main: time 2014-03-10_02:21:00 on domain   1:    2.21139 elapsed seconds
Timing for main: time 2014-03-10_02:22:00 on domain   1:    2.21164 elapsed seconds
Timing for main: time 2014-03-10_02:23:00 on domain   1:    2.21914 elapsed seconds
Timing for main: time 2014-03-10_02:24:00 on domain   1:   18.43396 elapsed seconds
Timing for main: time 2014-03-10_02:25:00 on domain   1:    2.33126 elapsed seconds
Timing for main: time 2014-03-10_02:26:00 on domain   1:    2.21853 elapsed seconds
Timing for main: time 2014-03-10_02:27:00 on domain   1:    2.22953 elapsed seconds
Timing for main: time 2014-03-10_02:28:00 on domain   1:    2.21378 elapsed seconds
Timing for main: time 2014-03-10_02:29:00 on domain   1:    2.21555 elapsed seconds
Timing for main: time 2014-03-10_02:30:00 on domain   1:   18.75956 elapsed seconds
Timing for main: time 2014-03-10_02:31:00 on domain   1:    2.41381 elapsed seconds
Timing for main: time 2014-03-10_02:32:00 on domain   1:    2.25037 elapsed seconds
Timing for main: time 2014-03-10_02:33:00 on domain   1:    2.25859 elapsed seconds
Timing for main: time 2014-03-10_02:34:00 on domain   1:    2.24705 elapsed seconds
Timing for main: time 2014-03-10_02:35:00 on domain   1:    2.24952 elapsed seconds
Timing for main: time 2014-03-10_02:36:00 on domain   1:   18.47549 elapsed seconds
Timing for main: time 2014-03-10_02:37:00 on domain   1:    2.35907 elapsed seconds
Timing for main: time 2014-03-10_02:38:00 on domain   1:    2.24947 elapsed seconds
Timing for main: time 2014-03-10_02:39:00 on domain   1:    2.29552 elapsed seconds
Timing for main: time 2014-03-10_02:40:00 on domain   1:    2.26222 elapsed seconds
Timing for main: time 2014-03-10_02:41:00 on domain   1:    2.24526 elapsed seconds
Timing for main: time 2014-03-10_02:42:00 on domain   1:   18.57853 elapsed seconds
Timing for main: time 2014-03-10_02:43:00 on domain   1:    2.27171 elapsed seconds
Timing for main: time 2014-03-10_02:44:00 on domain   1:    2.23569 elapsed seconds
Timing for main: time 2014-03-10_02:45:00 on domain   1:    2.56991 elapsed seconds
Timing for main: time 2014-03-10_02:46:00 on domain   1:    2.34008 elapsed seconds
Timing for main: time 2014-03-10_02:47:00 on domain   1:    2.24862 elapsed seconds
Timing for main: time 2014-03-10_02:48:00 on domain   1:   18.46669 elapsed seconds
Timing for main: time 2014-03-10_02:49:00 on domain   1:    2.39430 elapsed seconds
Timing for main: time 2014-03-10_02:50:00 on domain   1:    2.26420 elapsed seconds
Timing for main: time 2014-03-10_02:51:00 on domain   1:    2.25977 elapsed seconds
Timing for main: time 2014-03-10_02:52:00 on domain   1:    2.24533 elapsed seconds
Timing for main: time 2014-03-10_02:53:00 on domain   1:    2.24650 elapsed seconds
Timing for main: time 2014-03-10_02:54:00 on domain   1:   18.57115 elapsed seconds
Timing for main: time 2014-03-10_02:55:00 on domain   1:    2.28922 elapsed seconds
Timing for main: time 2014-03-10_02:56:00 on domain   1:    2.24710 elapsed seconds
Timing for main: time 2014-03-10_02:57:00 on domain   1:    2.24627 elapsed seconds
Timing for main: time 2014-03-10_02:58:00 on domain   1:    2.25016 elapsed seconds
Timing for main: time 2014-03-10_02:59:00 on domain   1:    2.25441 elapsed seconds
Timing for main: time 2014-03-10_03:00:00 on domain   1:   18.74267 elapsed seconds
Timing for Writing wrfout_d01_2014-03-10_03:00:00 for domain        1:   10.58458 elapsed seconds
Timing for Writing restart for domain        1:   18.28952 elapsed seconds
Timing for main: time 2014-03-10_03:01:00 on domain   1:   30.90570 elapsed seconds
Timing for main: time 2014-03-10_03:02:00 on domain   1:    2.24263 elapsed seconds
Timing for main: time 2014-03-10_03:03:00 on domain   1:    2.24235 elapsed seconds
Timing for main: time 2014-03-10_03:04:00 on domain   1:    2.25770 elapsed seconds
Timing for main: time 2014-03-10_03:05:00 on domain   1:    2.25060 elapsed seconds
Timing for main: time 2014-03-10_03:06:00 on domain   1:   18.28555 elapsed seconds
Timing for main: time 2014-03-10_03:07:00 on domain   1:    2.34002 elapsed seconds
Timing for main: time 2014-03-10_03:08:00 on domain   1:    2.26326 elapsed seconds
Timing for main: time 2014-03-10_03:09:00 on domain   1:    2.26375 elapsed seconds
Timing for main: time 2014-03-10_03:10:00 on domain   1:    2.28647 elapsed seconds
Timing for main: time 2014-03-10_03:11:00 on domain   1:    2.26583 elapsed seconds
Timing for main: time 2014-03-10_03:12:00 on domain   1:   18.54321 elapsed seconds
Timing for main: time 2014-03-10_03:13:00 on domain   1:    2.38784 elapsed seconds
Timing for main: time 2014-03-10_03:14:00 on domain   1:    2.28394 elapsed seconds
Timing for main: time 2014-03-10_03:15:00 on domain   1:    2.57930 elapsed seconds
Timing for main: time 2014-03-10_03:16:00 on domain   1:    2.37235 elapsed seconds
Timing for main: time 2014-03-10_03:17:00 on domain   1:    2.26400 elapsed seconds
Timing for main: time 2014-03-10_03:18:00 on domain   1:   18.59017 elapsed seconds
Timing for main: time 2014-03-10_03:19:00 on domain   1:    2.37786 elapsed seconds
Timing for main: time 2014-03-10_03:20:00 on domain   1:    2.31417 elapsed seconds
Timing for main: time 2014-03-10_03:21:00 on domain   1:    2.26827 elapsed seconds
Timing for main: time 2014-03-10_03:22:00 on domain   1:    2.28311 elapsed seconds
Timing for main: time 2014-03-10_03:23:00 on domain   1:    2.26720 elapsed seconds
Timing for main: time 2014-03-10_03:24:00 on domain   1:   18.87965 elapsed seconds
Timing for main: time 2014-03-10_03:25:00 on domain   1:    2.11812 elapsed seconds
Timing for main: time 2014-03-10_03:26:00 on domain   1:    2.30105 elapsed seconds
Timing for main: time 2014-03-10_03:27:00 on domain   1:    2.26558 elapsed seconds
Timing for main: time 2014-03-10_03:28:00 on domain   1:    2.27588 elapsed seconds
Timing for main: time 2014-03-10_03:29:00 on domain   1:    2.26600 elapsed seconds
Timing for main: time 2014-03-10_03:30:00 on domain   1:   18.96916 elapsed seconds
Timing for main: time 2014-03-10_03:31:00 on domain   1:    2.44445 elapsed seconds
Timing for main: time 2014-03-10_03:32:00 on domain   1:    2.25736 elapsed seconds
Timing for main: time 2014-03-10_03:33:00 on domain   1:    2.26145 elapsed seconds
Timing for main: time 2014-03-10_03:34:00 on domain   1:    2.25137 elapsed seconds
Timing for main: time 2014-03-10_03:35:00 on domain   1:    2.25965 elapsed seconds
Timing for main: time 2014-03-10_03:36:00 on domain   1:   18.50472 elapsed seconds
Timing for main: time 2014-03-10_03:37:00 on domain   1:    2.49250 elapsed seconds
Timing for main: time 2014-03-10_03:38:00 on domain   1:    2.24353 elapsed seconds
Timing for main: time 2014-03-10_03:39:00 on domain   1:    2.25596 elapsed seconds
Timing for main: time 2014-03-10_03:40:00 on domain   1:    2.26653 elapsed seconds
Timing for main: time 2014-03-10_03:41:00 on domain   1:    2.24799 elapsed seconds
Timing for main: time 2014-03-10_03:42:00 on domain   1:   18.53054 elapsed seconds
Timing for main: time 2014-03-10_03:43:00 on domain   1:    2.52276 elapsed seconds
Timing for main: time 2014-03-10_03:44:00 on domain   1:    2.24329 elapsed seconds
Timing for main: time 2014-03-10_03:45:00 on domain   1:    2.56411 elapsed seconds
Timing for main: time 2014-03-10_03:46:00 on domain   1:    2.33638 elapsed seconds
Timing for main: time 2014-03-10_03:47:00 on domain   1:    2.24390 elapsed seconds
Timing for main: time 2014-03-10_03:48:00 on domain   1:   18.54853 elapsed seconds
Timing for main: time 2014-03-10_03:49:00 on domain   1:    2.48331 elapsed seconds
Timing for main: time 2014-03-10_03:50:00 on domain   1:    2.25726 elapsed seconds
Timing for main: time 2014-03-10_03:51:00 on domain   1:    2.24092 elapsed seconds
Timing for main: time 2014-03-10_03:52:00 on domain   1:    2.25211 elapsed seconds
Timing for main: time 2014-03-10_03:53:00 on domain   1:    2.25102 elapsed seconds
Timing for main: time 2014-03-10_03:54:00 on domain   1:   18.85968 elapsed seconds
Timing for main: time 2014-03-10_03:55:00 on domain   1:    2.15454 elapsed seconds
Timing for main: time 2014-03-10_03:56:00 on domain   1:    2.25190 elapsed seconds
Timing for main: time 2014-03-10_03:57:00 on domain   1:    2.24441 elapsed seconds
Timing for main: time 2014-03-10_03:58:00 on domain   1:    2.24288 elapsed seconds
Timing for main: time 2014-03-10_03:59:00 on domain   1:    2.24299 elapsed seconds
Timing for main: time 2014-03-10_04:00:00 on domain   1:   18.79981 elapsed seconds
Timing for Writing wrfout_d01_2014-03-10_04:00:00 for domain        1:   10.81119 elapsed seconds
Timing for main: time 2014-03-10_04:01:00 on domain   1:   12.84253 elapsed seconds
Timing for main: time 2014-03-10_04:02:00 on domain   1:    2.24845 elapsed seconds
Timing for main: time 2014-03-10_04:03:00 on domain   1:    2.22497 elapsed seconds
Timing for main: time 2014-03-10_04:04:00 on domain   1:    2.22093 elapsed seconds
Timing for main: time 2014-03-10_04:05:00 on domain   1:    2.22550 elapsed seconds
Timing for main: time 2014-03-10_04:06:00 on domain   1:   18.63689 elapsed seconds
Timing for main: time 2014-03-10_04:07:00 on domain   1:    2.47437 elapsed seconds
Timing for main: time 2014-03-10_04:08:00 on domain   1:    2.24658 elapsed seconds
Timing for main: time 2014-03-10_04:09:00 on domain   1:    2.25305 elapsed seconds
Timing for main: time 2014-03-10_04:10:00 on domain   1:    2.25247 elapsed seconds
Timing for main: time 2014-03-10_04:11:00 on domain   1:    2.24154 elapsed seconds
Timing for main: time 2014-03-10_04:12:00 on domain   1:   18.76287 elapsed seconds
Timing for main: time 2014-03-10_04:13:00 on domain   1:    2.41079 elapsed seconds
Timing for main: time 2014-03-10_04:14:00 on domain   1:    2.24968 elapsed seconds
Timing for main: time 2014-03-10_04:15:00 on domain   1:    2.54857 elapsed seconds
Timing for main: time 2014-03-10_04:16:00 on domain   1:    2.34704 elapsed seconds
Timing for main: time 2014-03-10_04:17:00 on domain   1:    2.23909 elapsed seconds
Timing for main: time 2014-03-10_04:18:00 on domain   1:   18.56775 elapsed seconds
Timing for main: time 2014-03-10_04:19:00 on domain   1:    2.55456 elapsed seconds
Timing for main: time 2014-03-10_04:20:00 on domain   1:    2.25092 elapsed seconds
Timing for main: time 2014-03-10_04:21:00 on domain   1:    2.30516 elapsed seconds
Timing for main: time 2014-03-10_04:22:00 on domain   1:    2.24554 elapsed seconds
Timing for main: time 2014-03-10_04:23:00 on domain   1:    2.24223 elapsed seconds
Timing for main: time 2014-03-10_04:24:00 on domain   1:   18.88248 elapsed seconds
Timing for main: time 2014-03-10_04:25:00 on domain   1:    2.20822 elapsed seconds
Timing for main: time 2014-03-10_04:26:00 on domain   1:    2.24542 elapsed seconds
Timing for main: time 2014-03-10_04:27:00 on domain   1:    2.30747 elapsed seconds
Timing for main: time 2014-03-10_04:28:00 on domain   1:    2.24864 elapsed seconds
Timing for main: time 2014-03-10_04:29:00 on domain   1:    2.23812 elapsed seconds
Timing for main: time 2014-03-10_04:30:00 on domain   1:   18.92785 elapsed seconds
Timing for main: time 2014-03-10_04:31:00 on domain   1:    2.58608 elapsed seconds
Timing for main: time 2014-03-10_04:32:00 on domain   1:    2.25197 elapsed seconds
Timing for main: time 2014-03-10_04:33:00 on domain   1:    2.25722 elapsed seconds
Timing for main: time 2014-03-10_04:34:00 on domain   1:    2.25173 elapsed seconds
Timing for main: time 2014-03-10_04:35:00 on domain   1:    2.25542 elapsed seconds
Timing for main: time 2014-03-10_04:36:00 on domain   1:   18.64320 elapsed seconds
Timing for main: time 2014-03-10_04:37:00 on domain   1:    2.50960 elapsed seconds
Timing for main: time 2014-03-10_04:38:00 on domain   1:    2.24454 elapsed seconds
Timing for main: time 2014-03-10_04:39:00 on domain   1:    2.24864 elapsed seconds
Timing for main: time 2014-03-10_04:40:00 on domain   1:    2.25801 elapsed seconds
Timing for main: time 2014-03-10_04:41:00 on domain   1:    2.24957 elapsed seconds
Timing for main: time 2014-03-10_04:42:00 on domain   1:   18.65022 elapsed seconds
Timing for main: time 2014-03-10_04:43:00 on domain   1:    2.51233 elapsed seconds
Timing for main: time 2014-03-10_04:44:00 on domain   1:    2.24779 elapsed seconds
Timing for main: time 2014-03-10_04:45:00 on domain   1:    2.56192 elapsed seconds
Timing for main: time 2014-03-10_04:46:00 on domain   1:    2.35167 elapsed seconds
Timing for main: time 2014-03-10_04:47:00 on domain   1:    2.25212 elapsed seconds
Timing for main: time 2014-03-10_04:48:00 on domain   1:   18.90580 elapsed seconds
Timing for main: time 2014-03-10_04:49:00 on domain   1:    2.30640 elapsed seconds
Timing for main: time 2014-03-10_04:50:00 on domain   1:    2.26286 elapsed seconds
Timing for main: time 2014-03-10_04:51:00 on domain   1:    2.25633 elapsed seconds
Timing for main: time 2014-03-10_04:52:00 on domain   1:    2.25042 elapsed seconds
Timing for main: time 2014-03-10_04:53:00 on domain   1:    2.25128 elapsed seconds
Timing for main: time 2014-03-10_04:54:00 on domain   1:   18.52567 elapsed seconds
Timing for main: time 2014-03-10_04:55:00 on domain   1:    2.66517 elapsed seconds
Timing for main: time 2014-03-10_04:56:00 on domain   1:    2.26040 elapsed seconds
Timing for main: time 2014-03-10_04:57:00 on domain   1:    2.25112 elapsed seconds
Timing for main: time 2014-03-10_04:58:00 on domain   1:    2.25106 elapsed seconds
Timing for main: time 2014-03-10_04:59:00 on domain   1:    2.24992 elapsed seconds
Timing for main: time 2014-03-10_05:00:00 on domain   1:   18.85017 elapsed seconds
Timing for Writing wrfout_d01_2014-03-10_05:00:00 for domain        1:   11.79132 elapsed seconds
Timing for main: time 2014-03-10_05:01:00 on domain   1:   13.82748 elapsed seconds
Timing for main: time 2014-03-10_05:02:00 on domain   1:    2.25330 elapsed seconds
Timing for main: time 2014-03-10_05:03:00 on domain   1:    2.24889 elapsed seconds
Timing for main: time 2014-03-10_05:04:00 on domain   1:    2.25801 elapsed seconds
Timing for main: time 2014-03-10_05:05:00 on domain   1:    2.25851 elapsed seconds
Timing for main: time 2014-03-10_05:06:00 on domain   1:   18.70394 elapsed seconds
Timing for main: time 2014-03-10_05:07:00 on domain   1:    2.56016 elapsed seconds
Timing for main: time 2014-03-10_05:08:00 on domain   1:    2.26685 elapsed seconds
Timing for main: time 2014-03-10_05:09:00 on domain   1:    2.26765 elapsed seconds
Timing for main: time 2014-03-10_05:10:00 on domain   1:    2.27059 elapsed seconds
Timing for main: time 2014-03-10_05:11:00 on domain   1:    2.26462 elapsed seconds
Timing for main: time 2014-03-10_05:12:00 on domain   1:   18.58356 elapsed seconds
Timing for main: time 2014-03-10_05:13:00 on domain   1:    3.23188 elapsed seconds
Timing for main: time 2014-03-10_05:14:00 on domain   1:    2.26426 elapsed seconds
Timing for main: time 2014-03-10_05:15:00 on domain   1:    2.58320 elapsed seconds
Timing for main: time 2014-03-10_05:16:00 on domain   1:    2.35471 elapsed seconds
Timing for main: time 2014-03-10_05:17:00 on domain   1:    2.26400 elapsed seconds
Timing for main: time 2014-03-10_05:18:00 on domain   1:   18.65751 elapsed seconds
Timing for main: time 2014-03-10_05:19:00 on domain   1:    2.59275 elapsed seconds
Timing for main: time 2014-03-10_05:20:00 on domain   1:    2.27473 elapsed seconds
Timing for main: time 2014-03-10_05:21:00 on domain   1:    2.27204 elapsed seconds
Timing for main: time 2014-03-10_05:22:00 on domain   1:    2.26580 elapsed seconds
Timing for main: time 2014-03-10_05:23:00 on domain   1:    2.25913 elapsed seconds
Timing for main: time 2014-03-10_05:24:00 on domain   1:   18.88436 elapsed seconds
Timing for main: time 2014-03-10_05:25:00 on domain   1:    2.60659 elapsed seconds
Timing for main: time 2014-03-10_05:26:00 on domain   1:    2.26906 elapsed seconds
Timing for main: time 2014-03-10_05:27:00 on domain   1:    2.27570 elapsed seconds
Timing for main: time 2014-03-10_05:28:00 on domain   1:    2.27384 elapsed seconds
Timing for main: time 2014-03-10_05:29:00 on domain   1:    2.26153 elapsed seconds
Timing for main: time 2014-03-10_05:30:00 on domain   1:   18.88953 elapsed seconds
Timing for main: time 2014-03-10_05:31:00 on domain   1:    2.77963 elapsed seconds
Timing for main: time 2014-03-10_05:32:00 on domain   1:    2.32924 elapsed seconds
Timing for main: time 2014-03-10_05:33:00 on domain   1:    2.32848 elapsed seconds
Timing for main: time 2014-03-10_05:34:00 on domain   1:    2.32105 elapsed seconds
Timing for main: time 2014-03-10_05:35:00 on domain   1:    2.32966 elapsed seconds
Timing for main: time 2014-03-10_05:36:00 on domain   1:   18.56150 elapsed seconds
Timing for main: time 2014-03-10_05:37:00 on domain   1:    3.21401 elapsed seconds
Timing for main: time 2014-03-10_05:38:00 on domain   1:    2.33851 elapsed seconds
Timing for main: time 2014-03-10_05:39:00 on domain   1:    2.33107 elapsed seconds
Timing for main: time 2014-03-10_05:40:00 on domain   1:    2.33164 elapsed seconds
Timing for main: time 2014-03-10_05:41:00 on domain   1:    2.28526 elapsed seconds
Timing for main: time 2014-03-10_05:42:00 on domain   1:   18.58798 elapsed seconds
Timing for main: time 2014-03-10_05:43:00 on domain   1:    2.74082 elapsed seconds
Timing for main: time 2014-03-10_05:44:00 on domain   1:    2.32497 elapsed seconds
Timing for main: time 2014-03-10_05:45:00 on domain   1:    2.63141 elapsed seconds
Timing for main: time 2014-03-10_05:46:00 on domain   1:    2.43093 elapsed seconds
Timing for main: time 2014-03-10_05:47:00 on domain   1:    2.32637 elapsed seconds
Timing for main: time 2014-03-10_05:48:00 on domain   1:   18.83850 elapsed seconds
Timing for main: time 2014-03-10_05:49:00 on domain   1:    2.89294 elapsed seconds
Timing for main: time 2014-03-10_05:50:00 on domain   1:    2.33272 elapsed seconds
Timing for main: time 2014-03-10_05:51:00 on domain   1:    2.32312 elapsed seconds
Timing for main: time 2014-03-10_05:52:00 on domain   1:    2.32552 elapsed seconds
Timing for main: time 2014-03-10_05:53:00 on domain   1:    2.35199 elapsed seconds
Timing for main: time 2014-03-10_05:54:00 on domain   1:   18.72091 elapsed seconds
Timing for main: time 2014-03-10_05:55:00 on domain   1:    2.65609 elapsed seconds
Timing for main: time 2014-03-10_05:56:00 on domain   1:    2.32461 elapsed seconds
Timing for main: time 2014-03-10_05:57:00 on domain   1:    2.33965 elapsed seconds
Timing for main: time 2014-03-10_05:58:00 on domain   1:    2.31602 elapsed seconds
Timing for main: time 2014-03-10_05:59:00 on domain   1:    2.33234 elapsed seconds
Timing for main: time 2014-03-10_06:00:00 on domain   1:   19.03498 elapsed seconds
Timing for Writing wrfout_d01_2014-03-10_06:00:00 for domain        1:   11.36917 elapsed seconds
Timing for Writing restart for domain        1:   18.64303 elapsed seconds
Timing for processing lateral boundary for domain        1:    6.36494 elapsed seconds
Timing for main: time 2014-03-10_06:01:00 on domain   1:   38.41945 elapsed seconds
Timing for main: time 2014-03-10_06:02:00 on domain   1:    2.28683 elapsed seconds
Timing for main: time 2014-03-10_06:03:00 on domain   1:    2.28225 elapsed seconds
Timing for main: time 2014-03-10_06:04:00 on domain   1:    2.27054 elapsed seconds
Timing for main: time 2014-03-10_06:05:00 on domain   1:    2.28137 elapsed seconds
Timing for main: time 2014-03-10_06:06:00 on domain   1:   18.60513 elapsed seconds
Timing for main: time 2014-03-10_06:07:00 on domain   1:    2.74453 elapsed seconds
Timing for main: time 2014-03-10_06:08:00 on domain   1:    2.30118 elapsed seconds
Timing for main: time 2014-03-10_06:09:00 on domain   1:    2.27160 elapsed seconds
Timing for main: time 2014-03-10_06:10:00 on domain   1:    2.31273 elapsed seconds
Timing for main: time 2014-03-10_06:11:00 on domain   1:    2.29779 elapsed seconds
Timing for main: time 2014-03-10_06:12:00 on domain   1:   18.66644 elapsed seconds
Timing for main: time 2014-03-10_06:13:00 on domain   1:    2.93536 elapsed seconds
Timing for main: time 2014-03-10_06:14:00 on domain   1:    2.30765 elapsed seconds
Timing for main: time 2014-03-10_06:15:00 on domain   1:    2.60843 elapsed seconds
Timing for main: time 2014-03-10_06:16:00 on domain   1:    2.39760 elapsed seconds
Timing for main: time 2014-03-10_06:17:00 on domain   1:    2.29541 elapsed seconds
Timing for main: time 2014-03-10_06:18:00 on domain   1:   18.62424 elapsed seconds
Timing for main: time 2014-03-10_06:19:00 on domain   1:    3.06033 elapsed seconds
Timing for main: time 2014-03-10_06:20:00 on domain   1:    2.30679 elapsed seconds
Timing for main: time 2014-03-10_06:21:00 on domain   1:    2.29624 elapsed seconds
Timing for main: time 2014-03-10_06:22:00 on domain   1:    2.31229 elapsed seconds
Timing for main: time 2014-03-10_06:23:00 on domain   1:    2.29847 elapsed seconds
Timing for main: time 2014-03-10_06:24:00 on domain   1:   19.42443 elapsed seconds
Timing for main: time 2014-03-10_06:25:00 on domain   1:    2.68885 elapsed seconds
Timing for main: time 2014-03-10_06:26:00 on domain   1:    2.29033 elapsed seconds
Timing for main: time 2014-03-10_06:27:00 on domain   1:    2.30072 elapsed seconds
Timing for main: time 2014-03-10_06:28:00 on domain   1:    2.29406 elapsed seconds
Timing for main: time 2014-03-10_06:29:00 on domain   1:    2.28176 elapsed seconds
Timing for main: time 2014-03-10_06:30:00 on domain   1:   18.88628 elapsed seconds
Timing for main: time 2014-03-10_06:31:00 on domain   1:    3.13988 elapsed seconds
Timing for main: time 2014-03-10_06:32:00 on domain   1:    2.29965 elapsed seconds
Timing for main: time 2014-03-10_06:33:00 on domain   1:    2.30069 elapsed seconds
Timing for main: time 2014-03-10_06:34:00 on domain   1:    2.28645 elapsed seconds
Timing for main: time 2014-03-10_06:35:00 on domain   1:    2.29391 elapsed seconds
Timing for main: time 2014-03-10_06:36:00 on domain   1:   18.66552 elapsed seconds
Timing for main: time 2014-03-10_06:37:00 on domain   1:    2.94168 elapsed seconds
Timing for main: time 2014-03-10_06:38:00 on domain   1:    2.28895 elapsed seconds
Timing for main: time 2014-03-10_06:39:00 on domain   1:    2.28675 elapsed seconds
Timing for main: time 2014-03-10_06:40:00 on domain   1:    2.29894 elapsed seconds
Timing for main: time 2014-03-10_06:41:00 on domain   1:    2.28627 elapsed seconds
Timing for main: time 2014-03-10_06:42:00 on domain   1:   18.65615 elapsed seconds
Timing for main: time 2014-03-10_06:43:00 on domain   1:    3.11530 elapsed seconds
Timing for main: time 2014-03-10_06:44:00 on domain   1:    2.28218 elapsed seconds
Timing for main: time 2014-03-10_06:45:00 on domain   1:    2.58024 elapsed seconds
Timing for main: time 2014-03-10_06:46:00 on domain   1:    2.35841 elapsed seconds
Timing for main: time 2014-03-10_06:47:00 on domain   1:    2.27780 elapsed seconds
Timing for main: time 2014-03-10_06:48:00 on domain   1:   18.65942 elapsed seconds
Timing for main: time 2014-03-10_06:49:00 on domain   1:    3.02050 elapsed seconds
Timing for main: time 2014-03-10_06:50:00 on domain   1:    2.25549 elapsed seconds
Timing for main: time 2014-03-10_06:51:00 on domain   1:    2.25483 elapsed seconds
Timing for main: time 2014-03-10_06:52:00 on domain   1:    2.24546 elapsed seconds
Timing for main: time 2014-03-10_06:53:00 on domain   1:    2.25145 elapsed seconds
Timing for main: time 2014-03-10_06:54:00 on domain   1:   18.87934 elapsed seconds
Timing for main: time 2014-03-10_06:55:00 on domain   1:    2.79828 elapsed seconds
Timing for main: time 2014-03-10_06:56:00 on domain   1:    2.24277 elapsed seconds
Timing for main: time 2014-03-10_06:57:00 on domain   1:    2.24549 elapsed seconds
Timing for main: time 2014-03-10_06:58:00 on domain   1:    2.26086 elapsed seconds
Timing for main: time 2014-03-10_06:59:00 on domain   1:    2.24425 elapsed seconds
Timing for main: time 2014-03-10_07:00:00 on domain   1:   18.78167 elapsed seconds
Timing for Writing wrfout_d01_2014-03-10_07:00:00 for domain        1:   12.13652 elapsed seconds
Timing for main: time 2014-03-10_07:01:00 on domain   1:   14.13519 elapsed seconds
Timing for main: time 2014-03-10_07:02:00 on domain   1:    2.22610 elapsed seconds
Timing for main: time 2014-03-10_07:03:00 on domain   1:    2.22957 elapsed seconds
Timing for main: time 2014-03-10_07:04:00 on domain   1:    2.21118 elapsed seconds
Timing for main: time 2014-03-10_07:05:00 on domain   1:    2.22687 elapsed seconds
Timing for main: time 2014-03-10_07:06:00 on domain   1:   18.85303 elapsed seconds
Timing for main: time 2014-03-10_07:07:00 on domain   1:    3.00565 elapsed seconds
Timing for main: time 2014-03-10_07:08:00 on domain   1:    2.23865 elapsed seconds
Timing for main: time 2014-03-10_07:09:00 on domain   1:    2.22974 elapsed seconds
Timing for main: time 2014-03-10_07:10:00 on domain   1:    2.23866 elapsed seconds
Timing for main: time 2014-03-10_07:11:00 on domain   1:    2.22899 elapsed seconds
Timing for main: time 2014-03-10_07:12:00 on domain   1:   18.58596 elapsed seconds
Timing for main: time 2014-03-10_07:13:00 on domain   1:    3.18298 elapsed seconds
Timing for main: time 2014-03-10_07:14:00 on domain   1:    2.23656 elapsed seconds
Timing for main: time 2014-03-10_07:15:00 on domain   1:    2.56130 elapsed seconds
Timing for main: time 2014-03-10_07:16:00 on domain   1:    2.31711 elapsed seconds
Timing for main: time 2014-03-10_07:17:00 on domain   1:    2.21802 elapsed seconds
Timing for main: time 2014-03-10_07:18:00 on domain   1:   18.52657 elapsed seconds
Timing for main: time 2014-03-10_07:19:00 on domain   1:    3.24037 elapsed seconds
Timing for main: time 2014-03-10_07:20:00 on domain   1:    2.23444 elapsed seconds
Timing for main: time 2014-03-10_07:21:00 on domain   1:    2.21955 elapsed seconds
Timing for main: time 2014-03-10_07:22:00 on domain   1:    2.21828 elapsed seconds
Timing for main: time 2014-03-10_07:23:00 on domain   1:    2.22360 elapsed seconds
Timing for main: time 2014-03-10_07:24:00 on domain   1:   18.46014 elapsed seconds
Timing for main: time 2014-03-10_07:25:00 on domain   1:    3.36522 elapsed seconds
Timing for main: time 2014-03-10_07:26:00 on domain   1:    2.21640 elapsed seconds
Timing for main: time 2014-03-10_07:27:00 on domain   1:    2.21727 elapsed seconds
Timing for main: time 2014-03-10_07:28:00 on domain   1:    2.21585 elapsed seconds
Timing for main: time 2014-03-10_07:29:00 on domain   1:    2.21264 elapsed seconds
Timing for main: time 2014-03-10_07:30:00 on domain   1:   18.87708 elapsed seconds
Timing for main: time 2014-03-10_07:31:00 on domain   1:    3.41566 elapsed seconds
Timing for main: time 2014-03-10_07:32:00 on domain   1:    2.26024 elapsed seconds
Timing for main: time 2014-03-10_07:33:00 on domain   1:    2.26279 elapsed seconds
Timing for main: time 2014-03-10_07:34:00 on domain   1:    2.26307 elapsed seconds
Timing for main: time 2014-03-10_07:35:00 on domain   1:    2.26858 elapsed seconds
Timing for main: time 2014-03-10_07:36:00 on domain   1:   18.81770 elapsed seconds
Timing for main: time 2014-03-10_07:37:00 on domain   1:    3.16909 elapsed seconds
Timing for main: time 2014-03-10_07:38:00 on domain   1:    2.25906 elapsed seconds
Timing for main: time 2014-03-10_07:39:00 on domain   1:    2.26125 elapsed seconds
Timing for main: time 2014-03-10_07:40:00 on domain   1:    2.26220 elapsed seconds
Timing for main: time 2014-03-10_07:41:00 on domain   1:    2.25863 elapsed seconds
Timing for main: time 2014-03-10_07:42:00 on domain   1:   18.76433 elapsed seconds
Timing for main: time 2014-03-10_07:43:00 on domain   1:    3.26661 elapsed seconds
Timing for main: time 2014-03-10_07:44:00 on domain   1:    2.25384 elapsed seconds
Timing for main: time 2014-03-10_07:45:00 on domain   1:    2.57064 elapsed seconds
Timing for main: time 2014-03-10_07:46:00 on domain   1:    2.33491 elapsed seconds
Timing for main: time 2014-03-10_07:47:00 on domain   1:    2.26306 elapsed seconds
Timing for main: time 2014-03-10_07:48:00 on domain   1:   18.71885 elapsed seconds
Timing for main: time 2014-03-10_07:49:00 on domain   1:    3.31489 elapsed seconds
Timing for main: time 2014-03-10_07:50:00 on domain   1:    2.24684 elapsed seconds
Timing for main: time 2014-03-10_07:51:00 on domain   1:    2.23682 elapsed seconds
Timing for main: time 2014-03-10_07:52:00 on domain   1:    2.23709 elapsed seconds
Timing for main: time 2014-03-10_07:53:00 on domain   1:    2.23787 elapsed seconds
Timing for main: time 2014-03-10_07:54:00 on domain   1:   18.79642 elapsed seconds
Timing for main: time 2014-03-10_07:55:00 on domain   1:    3.32366 elapsed seconds
Timing for main: time 2014-03-10_07:56:00 on domain   1:    2.23529 elapsed seconds
Timing for main: time 2014-03-10_07:57:00 on domain   1:    2.23090 elapsed seconds
Timing for main: time 2014-03-10_07:58:00 on domain   1:    2.23489 elapsed seconds
Timing for main: time 2014-03-10_07:59:00 on domain   1:    2.22542 elapsed seconds
Timing for main: time 2014-03-10_08:00:00 on domain   1:   19.07272 elapsed seconds
Timing for Writing wrfout_d01_2014-03-10_08:00:00 for domain        1:   12.23650 elapsed seconds
Timing for main: time 2014-03-10_08:01:00 on domain   1:   14.16679 elapsed seconds
Timing for main: time 2014-03-10_08:02:00 on domain   1:    2.25062 elapsed seconds
Timing for main: time 2014-03-10_08:03:00 on domain   1:    2.24383 elapsed seconds
Timing for main: time 2014-03-10_08:04:00 on domain   1:    2.23207 elapsed seconds
Timing for main: time 2014-03-10_08:05:00 on domain   1:    2.24722 elapsed seconds
Timing for main: time 2014-03-10_08:06:00 on domain   1:   18.77032 elapsed seconds
Timing for main: time 2014-03-10_08:07:00 on domain   1:    3.62205 elapsed seconds
Timing for main: time 2014-03-10_08:08:00 on domain   1:    2.23720 elapsed seconds
Timing for main: time 2014-03-10_08:09:00 on domain   1:    2.25724 elapsed seconds
Timing for main: time 2014-03-10_08:10:00 on domain   1:    2.25980 elapsed seconds
Timing for main: time 2014-03-10_08:11:00 on domain   1:    2.27294 elapsed seconds
Timing for main: time 2014-03-10_08:12:00 on domain   1:   18.82065 elapsed seconds
Timing for main: time 2014-03-10_08:13:00 on domain   1:    3.48146 elapsed seconds
Timing for main: time 2014-03-10_08:14:00 on domain   1:    2.24800 elapsed seconds
Timing for main: time 2014-03-10_08:15:00 on domain   1:    2.56574 elapsed seconds
Timing for main: time 2014-03-10_08:16:00 on domain   1:    2.32597 elapsed seconds
Timing for main: time 2014-03-10_08:17:00 on domain   1:    2.24285 elapsed seconds
Timing for main: time 2014-03-10_08:18:00 on domain   1:   18.89817 elapsed seconds
Timing for main: time 2014-03-10_08:19:00 on domain   1:    3.50244 elapsed seconds
Timing for main: time 2014-03-10_08:20:00 on domain   1:    2.24360 elapsed seconds
Timing for main: time 2014-03-10_08:21:00 on domain   1:    2.23579 elapsed seconds
Timing for main: time 2014-03-10_08:22:00 on domain   1:    2.24324 elapsed seconds
Timing for main: time 2014-03-10_08:23:00 on domain   1:    2.24106 elapsed seconds
Timing for main: time 2014-03-10_08:24:00 on domain   1:   18.76208 elapsed seconds
Timing for main: time 2014-03-10_08:25:00 on domain   1:    3.75260 elapsed seconds
Timing for main: time 2014-03-10_08:26:00 on domain   1:    2.25010 elapsed seconds
Timing for main: time 2014-03-10_08:27:00 on domain   1:    2.23738 elapsed seconds
Timing for main: time 2014-03-10_08:28:00 on domain   1:    2.23433 elapsed seconds
Timing for main: time 2014-03-10_08:29:00 on domain   1:    2.19480 elapsed seconds
Timing for main: time 2014-03-10_08:30:00 on domain   1:   19.02511 elapsed seconds
Timing for main: time 2014-03-10_08:31:00 on domain   1:    4.78877 elapsed seconds
Timing for main: time 2014-03-10_08:32:00 on domain   1:    2.24592 elapsed seconds
Timing for main: time 2014-03-10_08:33:00 on domain   1:    2.27260 elapsed seconds
Timing for main: time 2014-03-10_08:34:00 on domain   1:    2.26432 elapsed seconds
Timing for main: time 2014-03-10_08:35:00 on domain   1:    2.24678 elapsed seconds
Timing for main: time 2014-03-10_08:36:00 on domain   1:   18.59187 elapsed seconds
Timing for main: time 2014-03-10_08:37:00 on domain   1:    4.04125 elapsed seconds
Timing for main: time 2014-03-10_08:38:00 on domain   1:    2.22967 elapsed seconds
Timing for main: time 2014-03-10_08:39:00 on domain   1:    2.23128 elapsed seconds
Timing for main: time 2014-03-10_08:40:00 on domain   1:    2.24398 elapsed seconds
Timing for main: time 2014-03-10_08:41:00 on domain   1:    2.23701 elapsed seconds
Timing for main: time 2014-03-10_08:42:00 on domain   1:   18.62835 elapsed seconds
Timing for main: time 2014-03-10_08:43:00 on domain   1:    4.03333 elapsed seconds
Timing for main: time 2014-03-10_08:44:00 on domain   1:    2.23437 elapsed seconds
Timing for main: time 2014-03-10_08:45:00 on domain   1:    2.52463 elapsed seconds
Timing for main: time 2014-03-10_08:46:00 on domain   1:    2.29675 elapsed seconds
Timing for main: time 2014-03-10_08:47:00 on domain   1:    2.22732 elapsed seconds
Timing for main: time 2014-03-10_08:48:00 on domain   1:   18.64302 elapsed seconds
Timing for main: time 2014-03-10_08:49:00 on domain   1:    4.04191 elapsed seconds
Timing for main: time 2014-03-10_08:50:00 on domain   1:    2.22909 elapsed seconds
Timing for main: time 2014-03-10_08:51:00 on domain   1:    2.25640 elapsed seconds
Timing for main: time 2014-03-10_08:52:00 on domain   1:    2.22004 elapsed seconds
Timing for main: time 2014-03-10_08:53:00 on domain   1:    2.22223 elapsed seconds
Timing for main: time 2014-03-10_08:54:00 on domain   1:   18.67220 elapsed seconds
Timing for main: time 2014-03-10_08:55:00 on domain   1:    4.03402 elapsed seconds
Timing for main: time 2014-03-10_08:56:00 on domain   1:    2.21939 elapsed seconds
Timing for main: time 2014-03-10_08:57:00 on domain   1:    2.21210 elapsed seconds
Timing for main: time 2014-03-10_08:58:00 on domain   1:    2.21143 elapsed seconds
Timing for main: time 2014-03-10_08:59:00 on domain   1:    2.21504 elapsed seconds
Timing for main: time 2014-03-10_09:00:00 on domain   1:   18.74345 elapsed seconds
Timing for Writing wrfout_d01_2014-03-10_09:00:00 for domain        1:   12.76721 elapsed seconds
Timing for Writing restart for domain        1:   18.35229 elapsed seconds
Timing for main: time 2014-03-10_09:01:00 on domain   1:   33.01663 elapsed seconds
Timing for main: time 2014-03-10_09:02:00 on domain   1:    2.15246 elapsed seconds
Timing for main: time 2014-03-10_09:03:00 on domain   1:    2.17258 elapsed seconds
Timing for main: time 2014-03-10_09:04:00 on domain   1:    2.15171 elapsed seconds
Timing for main: time 2014-03-10_09:05:00 on domain   1:    2.16733 elapsed seconds
Timing for main: time 2014-03-10_09:06:00 on domain   1:   18.14302 elapsed seconds
Timing for main: time 2014-03-10_09:07:00 on domain   1:    4.39495 elapsed seconds
Timing for main: time 2014-03-10_09:08:00 on domain   1:    2.20503 elapsed seconds
Timing for main: time 2014-03-10_09:09:00 on domain   1:    2.20403 elapsed seconds
Timing for main: time 2014-03-10_09:10:00 on domain   1:    2.21119 elapsed seconds
Timing for main: time 2014-03-10_09:11:00 on domain   1:    2.23049 elapsed seconds
Timing for main: time 2014-03-10_09:12:00 on domain   1:   18.55500 elapsed seconds
Timing for main: time 2014-03-10_09:13:00 on domain   1:    4.15315 elapsed seconds
Timing for main: time 2014-03-10_09:14:00 on domain   1:    2.19948 elapsed seconds
Timing for main: time 2014-03-10_09:15:00 on domain   1:    2.49971 elapsed seconds
Timing for main: time 2014-03-10_09:16:00 on domain   1:    2.32218 elapsed seconds
Timing for main: time 2014-03-10_09:17:00 on domain   1:    2.19582 elapsed seconds
Timing for main: time 2014-03-10_09:18:00 on domain   1:   18.75155 elapsed seconds
Timing for main: time 2014-03-10_09:19:00 on domain   1:    4.08801 elapsed seconds
Timing for main: time 2014-03-10_09:20:00 on domain   1:    2.20649 elapsed seconds
Timing for main: time 2014-03-10_09:21:00 on domain   1:    2.20446 elapsed seconds
Timing for main: time 2014-03-10_09:22:00 on domain   1:    2.20504 elapsed seconds
Timing for main: time 2014-03-10_09:23:00 on domain   1:    2.19588 elapsed seconds
Timing for main: time 2014-03-10_09:24:00 on domain   1:   18.44758 elapsed seconds
Timing for main: time 2014-03-10_09:25:00 on domain   1:    4.24577 elapsed seconds
Timing for main: time 2014-03-10_09:26:00 on domain   1:    2.19309 elapsed seconds
Timing for main: time 2014-03-10_09:27:00 on domain   1:    2.18994 elapsed seconds
Timing for main: time 2014-03-10_09:28:00 on domain   1:    2.18918 elapsed seconds
Timing for main: time 2014-03-10_09:29:00 on domain   1:    2.18715 elapsed seconds
Timing for main: time 2014-03-10_09:30:00 on domain   1:   18.72534 elapsed seconds
Timing for main: time 2014-03-10_09:31:00 on domain   1:    5.12277 elapsed seconds
Timing for main: time 2014-03-10_09:32:00 on domain   1:    2.17377 elapsed seconds
Timing for main: time 2014-03-10_09:33:00 on domain   1:    2.17902 elapsed seconds
Timing for main: time 2014-03-10_09:34:00 on domain   1:    2.17829 elapsed seconds
Timing for main: time 2014-03-10_09:35:00 on domain   1:    2.16037 elapsed seconds
Timing for main: time 2014-03-10_09:36:00 on domain   1:   18.65868 elapsed seconds
Timing for main: time 2014-03-10_09:37:00 on domain   1:    3.97355 elapsed seconds
Timing for main: time 2014-03-10_09:38:00 on domain   1:    2.18312 elapsed seconds
Timing for main: time 2014-03-10_09:39:00 on domain   1:    2.17828 elapsed seconds
Timing for main: time 2014-03-10_09:40:00 on domain   1:    2.17720 elapsed seconds
Timing for main: time 2014-03-10_09:41:00 on domain   1:    2.24841 elapsed seconds
Timing for main: time 2014-03-10_09:42:00 on domain   1:   18.75735 elapsed seconds
Timing for main: time 2014-03-10_09:43:00 on domain   1:    3.76551 elapsed seconds
Timing for main: time 2014-03-10_09:44:00 on domain   1:    2.17907 elapsed seconds
Timing for main: time 2014-03-10_09:45:00 on domain   1:    2.41742 elapsed seconds
Timing for main: time 2014-03-10_09:46:00 on domain   1:    2.50980 elapsed seconds
Timing for main: time 2014-03-10_09:47:00 on domain   1:    2.18790 elapsed seconds
Timing for main: time 2014-03-10_09:48:00 on domain   1:   18.50731 elapsed seconds
Timing for main: time 2014-03-10_09:49:00 on domain   1:    5.27101 elapsed seconds
Timing for main: time 2014-03-10_09:50:00 on domain   1:    2.17750 elapsed seconds
Timing for main: time 2014-03-10_09:51:00 on domain   1:    2.16131 elapsed seconds
Timing for main: time 2014-03-10_09:52:00 on domain   1:    2.16309 elapsed seconds
Timing for main: time 2014-03-10_09:53:00 on domain   1:    2.16105 elapsed seconds
Timing for main: time 2014-03-10_09:54:00 on domain   1:   18.74879 elapsed seconds
Timing for main: time 2014-03-10_09:55:00 on domain   1:    3.71910 elapsed seconds
Timing for main: time 2014-03-10_09:56:00 on domain   1:    2.15961 elapsed seconds
Timing for main: time 2014-03-10_09:57:00 on domain   1:    2.14993 elapsed seconds
Timing for main: time 2014-03-10_09:58:00 on domain   1:    2.14951 elapsed seconds
Timing for main: time 2014-03-10_09:59:00 on domain   1:    2.08780 elapsed seconds
Timing for main: time 2014-03-10_10:00:00 on domain   1:   19.48255 elapsed seconds
Timing for Writing wrfout_d01_2014-03-10_10:00:00 for domain        1:   13.51163 elapsed seconds
Timing for main: time 2014-03-10_10:01:00 on domain   1:   15.51334 elapsed seconds
Timing for main: time 2014-03-10_10:02:00 on domain   1:    2.12217 elapsed seconds
Timing for main: time 2014-03-10_10:03:00 on domain   1:    2.12385 elapsed seconds
Timing for main: time 2014-03-10_10:04:00 on domain   1:    2.13489 elapsed seconds
Timing for main: time 2014-03-10_10:05:00 on domain   1:    2.13307 elapsed seconds
Timing for main: time 2014-03-10_10:06:00 on domain   1:   18.59657 elapsed seconds
Timing for main: time 2014-03-10_10:07:00 on domain   1:    3.79735 elapsed seconds
Timing for main: time 2014-03-10_10:08:00 on domain   1:    2.16190 elapsed seconds
Timing for main: time 2014-03-10_10:09:00 on domain   1:    2.15693 elapsed seconds
Timing for main: time 2014-03-10_10:10:00 on domain   1:    2.17195 elapsed seconds
Timing for main: time 2014-03-10_10:11:00 on domain   1:    2.15918 elapsed seconds
Timing for main: time 2014-03-10_10:12:00 on domain   1:   18.68000 elapsed seconds
Timing for main: time 2014-03-10_10:13:00 on domain   1:    4.03839 elapsed seconds
Timing for main: time 2014-03-10_10:14:00 on domain   1:    2.14808 elapsed seconds
Timing for main: time 2014-03-10_10:15:00 on domain   1:    2.53933 elapsed seconds
Timing for main: time 2014-03-10_10:16:00 on domain   1:    2.39993 elapsed seconds
Timing for main: time 2014-03-10_10:17:00 on domain   1:    2.17871 elapsed seconds
Timing for main: time 2014-03-10_10:18:00 on domain   1:   19.19550 elapsed seconds
Timing for main: time 2014-03-10_10:19:00 on domain   1:    4.53709 elapsed seconds
Timing for main: time 2014-03-10_10:20:00 on domain   1:    2.16010 elapsed seconds
Timing for main: time 2014-03-10_10:21:00 on domain   1:    2.15987 elapsed seconds
Timing for main: time 2014-03-10_10:22:00 on domain   1:    2.14492 elapsed seconds
Timing for main: time 2014-03-10_10:23:00 on domain   1:    2.14984 elapsed seconds
Timing for main: time 2014-03-10_10:24:00 on domain   1:   18.81023 elapsed seconds
Timing for main: time 2014-03-10_10:25:00 on domain   1:    3.50462 elapsed seconds
Timing for main: time 2014-03-10_10:26:00 on domain   1:    2.14130 elapsed seconds
Timing for main: time 2014-03-10_10:27:00 on domain   1:    2.15236 elapsed seconds
Timing for main: time 2014-03-10_10:28:00 on domain   1:    2.13827 elapsed seconds
Timing for main: time 2014-03-10_10:29:00 on domain   1:    2.14253 elapsed seconds
Timing for main: time 2014-03-10_10:30:00 on domain   1:   20.07738 elapsed seconds
Timing for main: time 2014-03-10_10:31:00 on domain   1:    4.50710 elapsed seconds
Timing for main: time 2014-03-10_10:32:00 on domain   1:    2.29451 elapsed seconds
Timing for main: time 2014-03-10_10:33:00 on domain   1:    2.32735 elapsed seconds
Timing for main: time 2014-03-10_10:34:00 on domain   1:    2.29536 elapsed seconds
Timing for main: time 2014-03-10_10:35:00 on domain   1:    2.28138 elapsed seconds
Timing for main: time 2014-03-10_10:36:00 on domain   1:   18.50665 elapsed seconds
Timing for main: time 2014-03-10_10:37:00 on domain   1:    4.23581 elapsed seconds
Timing for main: time 2014-03-10_10:38:00 on domain   1:    2.27885 elapsed seconds
Timing for main: time 2014-03-10_10:39:00 on domain   1:    2.27787 elapsed seconds
Timing for main: time 2014-03-10_10:40:00 on domain   1:    2.29382 elapsed seconds
Timing for main: time 2014-03-10_10:41:00 on domain   1:    2.34167 elapsed seconds
Timing for main: time 2014-03-10_10:42:00 on domain   1:   18.63459 elapsed seconds
Timing for main: time 2014-03-10_10:43:00 on domain   1:    4.21480 elapsed seconds
Timing for main: time 2014-03-10_10:44:00 on domain   1:    2.27646 elapsed seconds
Timing for main: time 2014-03-10_10:45:00 on domain   1:    2.65927 elapsed seconds
Timing for main: time 2014-03-10_10:46:00 on domain   1:    2.54197 elapsed seconds
Timing for main: time 2014-03-10_10:47:00 on domain   1:    2.29260 elapsed seconds
Timing for main: time 2014-03-10_10:48:00 on domain   1:   19.74101 elapsed seconds
Timing for main: time 2014-03-10_10:49:00 on domain   1:    4.42808 elapsed seconds
Timing for main: time 2014-03-10_10:50:00 on domain   1:    2.28128 elapsed seconds
Timing for main: time 2014-03-10_10:51:00 on domain   1:    2.27367 elapsed seconds
Timing for main: time 2014-03-10_10:52:00 on domain   1:    2.26993 elapsed seconds
Timing for main: time 2014-03-10_10:53:00 on domain   1:    2.27214 elapsed seconds
Timing for main: time 2014-03-10_10:54:00 on domain   1:   18.53933 elapsed seconds
Timing for main: time 2014-03-10_10:55:00 on domain   1:    4.26733 elapsed seconds
Timing for main: time 2014-03-10_10:56:00 on domain   1:    2.28604 elapsed seconds
Timing for main: time 2014-03-10_10:57:00 on domain   1:    2.26025 elapsed seconds
Timing for main: time 2014-03-10_10:58:00 on domain   1:    2.25900 elapsed seconds
Timing for main: time 2014-03-10_10:59:00 on domain   1:    2.26753 elapsed seconds
Timing for main: time 2014-03-10_11:00:00 on domain   1:   19.99976 elapsed seconds
Timing for Writing wrfout_d01_2014-03-10_11:00:00 for domain        1:   13.21544 elapsed seconds
Timing for main: time 2014-03-10_11:01:00 on domain   1:   15.19246 elapsed seconds
Timing for main: time 2014-03-10_11:02:00 on domain   1:    2.19641 elapsed seconds
Timing for main: time 2014-03-10_11:03:00 on domain   1:    2.20066 elapsed seconds
Timing for main: time 2014-03-10_11:04:00 on domain   1:    2.18843 elapsed seconds
Timing for main: time 2014-03-10_11:05:00 on domain   1:    2.20717 elapsed seconds
Timing for main: time 2014-03-10_11:06:00 on domain   1:   18.77793 elapsed seconds
Timing for main: time 2014-03-10_11:07:00 on domain   1:    4.10322 elapsed seconds
Timing for main: time 2014-03-10_11:08:00 on domain   1:    2.24381 elapsed seconds
Timing for main: time 2014-03-10_11:09:00 on domain   1:    2.32221 elapsed seconds
Timing for main: time 2014-03-10_11:10:00 on domain   1:    2.25343 elapsed seconds
Timing for main: time 2014-03-10_11:11:00 on domain   1:    2.23435 elapsed seconds
Timing for main: time 2014-03-10_11:12:00 on domain   1:   18.56539 elapsed seconds
Timing for main: time 2014-03-10_11:13:00 on domain   1:    4.17377 elapsed seconds
Timing for main: time 2014-03-10_11:14:00 on domain   1:    2.24273 elapsed seconds
Timing for main: time 2014-03-10_11:15:00 on domain   1:    2.61752 elapsed seconds
Timing for main: time 2014-03-10_11:16:00 on domain   1:    2.47245 elapsed seconds
Timing for main: time 2014-03-10_11:17:00 on domain   1:    2.23111 elapsed seconds
Timing for main: time 2014-03-10_11:18:00 on domain   1:   19.71863 elapsed seconds
Timing for main: time 2014-03-10_11:19:00 on domain   1:    4.28722 elapsed seconds
Timing for main: time 2014-03-10_11:20:00 on domain   1:    2.25549 elapsed seconds
Timing for main: time 2014-03-10_11:21:00 on domain   1:    2.22917 elapsed seconds
Timing for main: time 2014-03-10_11:22:00 on domain   1:    2.22647 elapsed seconds
Timing for main: time 2014-03-10_11:23:00 on domain   1:    2.23050 elapsed seconds
Timing for main: time 2014-03-10_11:24:00 on domain   1:   18.55993 elapsed seconds
Timing for main: time 2014-03-10_11:25:00 on domain   1:    4.07324 elapsed seconds
Timing for main: time 2014-03-10_11:26:00 on domain   1:    2.21728 elapsed seconds
Timing for main: time 2014-03-10_11:27:00 on domain   1:    2.21561 elapsed seconds
Timing for main: time 2014-03-10_11:28:00 on domain   1:    2.21687 elapsed seconds
Timing for main: time 2014-03-10_11:29:00 on domain   1:    2.22656 elapsed seconds
Timing for main: time 2014-03-10_11:30:00 on domain   1:   20.05239 elapsed seconds
Timing for main: time 2014-03-10_11:31:00 on domain   1:    4.39653 elapsed seconds
Timing for main: time 2014-03-10_11:32:00 on domain   1:    2.20137 elapsed seconds
Timing for main: time 2014-03-10_11:33:00 on domain   1:    2.20400 elapsed seconds
Timing for main: time 2014-03-10_11:34:00 on domain   1:    2.20206 elapsed seconds
Timing for main: time 2014-03-10_11:35:00 on domain   1:    2.21091 elapsed seconds
Timing for main: time 2014-03-10_11:36:00 on domain   1:   18.70259 elapsed seconds
Timing for main: time 2014-03-10_11:37:00 on domain   1:    3.74751 elapsed seconds
Timing for main: time 2014-03-10_11:38:00 on domain   1:    2.19288 elapsed seconds
Timing for main: time 2014-03-10_11:39:00 on domain   1:    2.21011 elapsed seconds
Timing for main: time 2014-03-10_11:40:00 on domain   1:    2.20843 elapsed seconds
Timing for main: time 2014-03-10_11:41:00 on domain   1:    2.20021 elapsed seconds
Timing for main: time 2014-03-10_11:42:00 on domain   1:   18.75815 elapsed seconds
Timing for main: time 2014-03-10_11:43:00 on domain   1:    3.62386 elapsed seconds
Timing for main: time 2014-03-10_11:44:00 on domain   1:    2.21368 elapsed seconds
Timing for main: time 2014-03-10_11:45:00 on domain   1:    2.55238 elapsed seconds
Timing for main: time 2014-03-10_11:46:00 on domain   1:    2.43860 elapsed seconds
Timing for main: time 2014-03-10_11:47:00 on domain   1:    2.19440 elapsed seconds
Timing for main: time 2014-03-10_11:48:00 on domain   1:   19.51578 elapsed seconds
Timing for main: time 2014-03-10_11:49:00 on domain   1:    4.07153 elapsed seconds
Timing for main: time 2014-03-10_11:50:00 on domain   1:    2.18448 elapsed seconds
Timing for main: time 2014-03-10_11:51:00 on domain   1:    2.19833 elapsed seconds
Timing for main: time 2014-03-10_11:52:00 on domain   1:    2.17866 elapsed seconds
Timing for main: time 2014-03-10_11:53:00 on domain   1:    2.17240 elapsed seconds
Timing for main: time 2014-03-10_11:54:00 on domain   1:   18.55625 elapsed seconds
Timing for main: time 2014-03-10_11:55:00 on domain   1:    3.76213 elapsed seconds
Timing for main: time 2014-03-10_11:56:00 on domain   1:    2.17541 elapsed seconds
Timing for main: time 2014-03-10_11:57:00 on domain   1:    2.18245 elapsed seconds
Timing for main: time 2014-03-10_11:58:00 on domain   1:    2.17578 elapsed seconds
Timing for main: time 2014-03-10_11:59:00 on domain   1:    2.17657 elapsed seconds
Timing for main: time 2014-03-10_12:00:00 on domain   1:   19.79266 elapsed seconds
Timing for Writing wrfout_d01_2014-03-10_12:00:00 for domain        1:   12.70424 elapsed seconds
Timing for Writing restart for domain        1:   18.74774 elapsed seconds
Timing for processing lateral boundary for domain        1:    6.57599 elapsed seconds
Timing for main: time 2014-03-10_12:01:00 on domain   1:   39.98785 elapsed seconds
Timing for main: time 2014-03-10_12:02:00 on domain   1:    2.09097 elapsed seconds
Timing for main: time 2014-03-10_12:03:00 on domain   1:    2.08089 elapsed seconds
Timing for main: time 2014-03-10_12:04:00 on domain   1:    2.08025 elapsed seconds
Timing for main: time 2014-03-10_12:05:00 on domain   1:    2.07983 elapsed seconds
Timing for main: time 2014-03-10_12:06:00 on domain   1:   18.55841 elapsed seconds
Timing for main: time 2014-03-10_12:07:00 on domain   1:    3.75511 elapsed seconds
Timing for main: time 2014-03-10_12:08:00 on domain   1:    2.12113 elapsed seconds
Timing for main: time 2014-03-10_12:09:00 on domain   1:    2.12520 elapsed seconds
Timing for main: time 2014-03-10_12:10:00 on domain   1:    2.12195 elapsed seconds
Timing for main: time 2014-03-10_12:11:00 on domain   1:    2.10387 elapsed seconds
Timing for main: time 2014-03-10_12:12:00 on domain   1:   18.85101 elapsed seconds
Timing for main: time 2014-03-10_12:13:00 on domain   1:    3.44974 elapsed seconds
Timing for main: time 2014-03-10_12:14:00 on domain   1:    2.09572 elapsed seconds
Timing for main: time 2014-03-10_12:15:00 on domain   1:    2.48284 elapsed seconds
Timing for main: time 2014-03-10_12:16:00 on domain   1:    2.33694 elapsed seconds
Timing for main: time 2014-03-10_12:17:00 on domain   1:    2.10290 elapsed seconds
Timing for main: time 2014-03-10_12:18:00 on domain   1:   19.48919 elapsed seconds
Timing for main: time 2014-03-10_12:19:00 on domain   1:    3.92952 elapsed seconds
Timing for main: time 2014-03-10_12:20:00 on domain   1:    2.09540 elapsed seconds
Timing for main: time 2014-03-10_12:21:00 on domain   1:    2.07658 elapsed seconds
Timing for main: time 2014-03-10_12:22:00 on domain   1:    2.08333 elapsed seconds
Timing for main: time 2014-03-10_12:23:00 on domain   1:    2.07698 elapsed seconds
Timing for main: time 2014-03-10_12:24:00 on domain   1:   18.62980 elapsed seconds
Timing for main: time 2014-03-10_12:25:00 on domain   1:    3.62701 elapsed seconds
Timing for main: time 2014-03-10_12:26:00 on domain   1:    2.09247 elapsed seconds
Timing for main: time 2014-03-10_12:27:00 on domain   1:    2.06680 elapsed seconds
Timing for main: time 2014-03-10_12:28:00 on domain   1:    2.06096 elapsed seconds
Timing for main: time 2014-03-10_12:29:00 on domain   1:    2.06279 elapsed seconds
Timing for main: time 2014-03-10_12:30:00 on domain   1:   19.60964 elapsed seconds
Timing for main: time 2014-03-10_12:31:00 on domain   1:    4.40225 elapsed seconds
Timing for main: time 2014-03-10_12:32:00 on domain   1:    2.07030 elapsed seconds
Timing for main: time 2014-03-10_12:33:00 on domain   1:    2.07953 elapsed seconds
Timing for main: time 2014-03-10_12:34:00 on domain   1:    2.07181 elapsed seconds
Timing for main: time 2014-03-10_12:35:00 on domain   1:    2.07620 elapsed seconds
Timing for main: time 2014-03-10_12:36:00 on domain   1:   18.53467 elapsed seconds
Timing for main: time 2014-03-10_12:37:00 on domain   1:    3.76554 elapsed seconds
Timing for main: time 2014-03-10_12:38:00 on domain   1:    2.06023 elapsed seconds
Timing for main: time 2014-03-10_12:39:00 on domain   1:    2.07867 elapsed seconds
Timing for main: time 2014-03-10_12:40:00 on domain   1:    2.07304 elapsed seconds
Timing for main: time 2014-03-10_12:41:00 on domain   1:    2.05904 elapsed seconds
Timing for main: time 2014-03-10_12:42:00 on domain   1:   18.82010 elapsed seconds
Timing for main: time 2014-03-10_12:43:00 on domain   1:    3.49547 elapsed seconds
Timing for main: time 2014-03-10_12:44:00 on domain   1:    2.08732 elapsed seconds
Timing for main: time 2014-03-10_12:45:00 on domain   1:    2.46310 elapsed seconds
Timing for main: time 2014-03-10_12:46:00 on domain   1:    2.32177 elapsed seconds
Timing for main: time 2014-03-10_12:47:00 on domain   1:    2.04791 elapsed seconds
Timing for main: time 2014-03-10_12:48:00 on domain   1:   19.11904 elapsed seconds
Timing for main: time 2014-03-10_12:49:00 on domain   1:    4.22089 elapsed seconds
Timing for main: time 2014-03-10_12:50:00 on domain   1:    2.04803 elapsed seconds
Timing for main: time 2014-03-10_12:51:00 on domain   1:    2.03719 elapsed seconds
Timing for main: time 2014-03-10_12:52:00 on domain   1:    2.04264 elapsed seconds
Timing for main: time 2014-03-10_12:53:00 on domain   1:    2.04532 elapsed seconds
Timing for main: time 2014-03-10_12:54:00 on domain   1:   18.87709 elapsed seconds
Timing for main: time 2014-03-10_12:55:00 on domain   1:    3.39803 elapsed seconds
Timing for main: time 2014-03-10_12:56:00 on domain   1:    2.01193 elapsed seconds
Timing for main: time 2014-03-10_12:57:00 on domain   1:    2.02153 elapsed seconds
Timing for main: time 2014-03-10_12:58:00 on domain   1:    2.03231 elapsed seconds
Timing for main: time 2014-03-10_12:59:00 on domain   1:    2.01566 elapsed seconds
Timing for main: time 2014-03-10_13:00:00 on domain   1:   19.49320 elapsed seconds
Timing for Writing wrfout_d01_2014-03-10_13:00:00 for domain        1:   13.21799 elapsed seconds
Timing for main: time 2014-03-10_13:01:00 on domain   1:   15.08707 elapsed seconds
Timing for main: time 2014-03-10_13:02:00 on domain   1:    2.01093 elapsed seconds
Timing for main: time 2014-03-10_13:03:00 on domain   1:    2.00635 elapsed seconds
Timing for main: time 2014-03-10_13:04:00 on domain   1:    2.01368 elapsed seconds
Timing for main: time 2014-03-10_13:05:00 on domain   1:    2.02072 elapsed seconds
Timing for main: time 2014-03-10_13:06:00 on domain   1:   18.51294 elapsed seconds
Timing for main: time 2014-03-10_13:07:00 on domain   1:    3.77122 elapsed seconds
Timing for main: time 2014-03-10_13:08:00 on domain   1:    2.06622 elapsed seconds
Timing for main: time 2014-03-10_13:09:00 on domain   1:    2.07349 elapsed seconds
Timing for main: time 2014-03-10_13:10:00 on domain   1:    2.06157 elapsed seconds
Timing for main: time 2014-03-10_13:11:00 on domain   1:    2.05573 elapsed seconds
Timing for main: time 2014-03-10_13:12:00 on domain   1:   18.86270 elapsed seconds
Timing for main: time 2014-03-10_13:13:00 on domain   1:    3.28679 elapsed seconds
Timing for main: time 2014-03-10_13:14:00 on domain   1:    2.05869 elapsed seconds
Timing for main: time 2014-03-10_13:15:00 on domain   1:    2.45107 elapsed seconds
Timing for main: time 2014-03-10_13:16:00 on domain   1:    2.28059 elapsed seconds
Timing for main: time 2014-03-10_13:17:00 on domain   1:    2.05378 elapsed seconds
Timing for main: time 2014-03-10_13:18:00 on domain   1:   19.03161 elapsed seconds
Timing for main: time 2014-03-10_13:19:00 on domain   1:    3.92642 elapsed seconds
Timing for main: time 2014-03-10_13:20:00 on domain   1:    2.06016 elapsed seconds
Timing for main: time 2014-03-10_13:21:00 on domain   1:    2.05387 elapsed seconds
Timing for main: time 2014-03-10_13:22:00 on domain   1:    2.05432 elapsed seconds
Timing for main: time 2014-03-10_13:23:00 on domain   1:    2.05279 elapsed seconds
Timing for main: time 2014-03-10_13:24:00 on domain   1:   18.45571 elapsed seconds
Timing for main: time 2014-03-10_13:25:00 on domain   1:    3.64016 elapsed seconds
Timing for main: time 2014-03-10_13:26:00 on domain   1:    2.05280 elapsed seconds
Timing for main: time 2014-03-10_13:27:00 on domain   1:    2.05985 elapsed seconds
Timing for main: time 2014-03-10_13:28:00 on domain   1:    2.05334 elapsed seconds
Timing for main: time 2014-03-10_13:29:00 on domain   1:    2.05618 elapsed seconds
Timing for main: time 2014-03-10_13:30:00 on domain   1:   19.32893 elapsed seconds
Timing for main: time 2014-03-10_13:31:00 on domain   1:    3.91279 elapsed seconds
Timing for main: time 2014-03-10_13:32:00 on domain   1:    2.06457 elapsed seconds
Timing for main: time 2014-03-10_13:33:00 on domain   1:    2.08897 elapsed seconds
Timing for main: time 2014-03-10_13:34:00 on domain   1:    2.06144 elapsed seconds
Timing for main: time 2014-03-10_13:35:00 on domain   1:    2.08559 elapsed seconds
Timing for main: time 2014-03-10_13:36:00 on domain   1:   18.35275 elapsed seconds
Timing for main: time 2014-03-10_13:37:00 on domain   1:    3.45417 elapsed seconds
Timing for main: time 2014-03-10_13:38:00 on domain   1:    2.05916 elapsed seconds
Timing for main: time 2014-03-10_13:39:00 on domain   1:    2.05793 elapsed seconds
Timing for main: time 2014-03-10_13:40:00 on domain   1:    2.07645 elapsed seconds
Timing for main: time 2014-03-10_13:41:00 on domain   1:    2.08124 elapsed seconds
Timing for main: time 2014-03-10_13:42:00 on domain   1:   18.65183 elapsed seconds
Timing for main: time 2014-03-10_13:43:00 on domain   1:    3.09523 elapsed seconds
Timing for main: time 2014-03-10_13:44:00 on domain   1:    2.06029 elapsed seconds
Timing for main: time 2014-03-10_13:45:00 on domain   1:    2.46508 elapsed seconds
Timing for main: time 2014-03-10_13:46:00 on domain   1:    2.29509 elapsed seconds
Timing for main: time 2014-03-10_13:47:00 on domain   1:    2.06299 elapsed seconds
Timing for main: time 2014-03-10_13:48:00 on domain   1:   18.99169 elapsed seconds
Timing for main: time 2014-03-10_13:49:00 on domain   1:    3.32898 elapsed seconds
Timing for main: time 2014-03-10_13:50:00 on domain   1:    2.07534 elapsed seconds
Timing for main: time 2014-03-10_13:51:00 on domain   1:    2.05324 elapsed seconds
Timing for main: time 2014-03-10_13:52:00 on domain   1:    2.05496 elapsed seconds
Timing for main: time 2014-03-10_13:53:00 on domain   1:    2.06910 elapsed seconds
Timing for main: time 2014-03-10_13:54:00 on domain   1:   18.61120 elapsed seconds
Timing for main: time 2014-03-10_13:55:00 on domain   1:    2.91593 elapsed seconds
Timing for main: time 2014-03-10_13:56:00 on domain   1:    2.06154 elapsed seconds
Timing for main: time 2014-03-10_13:57:00 on domain   1:    2.06112 elapsed seconds
Timing for main: time 2014-03-10_13:58:00 on domain   1:    2.08483 elapsed seconds
Timing for main: time 2014-03-10_13:59:00 on domain   1:    2.08821 elapsed seconds
Timing for main: time 2014-03-10_14:00:00 on domain   1:   19.36477 elapsed seconds
Timing for Writing wrfout_d01_2014-03-10_14:00:00 for domain        1:   12.05798 elapsed seconds
Timing for main: time 2014-03-10_14:01:00 on domain   1:   13.89721 elapsed seconds
Timing for main: time 2014-03-10_14:02:00 on domain   1:    2.01940 elapsed seconds
Timing for main: time 2014-03-10_14:03:00 on domain   1:    2.00495 elapsed seconds
Timing for main: time 2014-03-10_14:04:00 on domain   1:    2.00414 elapsed seconds
Timing for main: time 2014-03-10_14:05:00 on domain   1:    2.02439 elapsed seconds
Timing for main: time 2014-03-10_14:06:00 on domain   1:   18.50643 elapsed seconds
Timing for main: time 2014-03-10_14:07:00 on domain   1:    3.02755 elapsed seconds
Timing for main: time 2014-03-10_14:08:00 on domain   1:    2.05786 elapsed seconds
Timing for main: time 2014-03-10_14:09:00 on domain   1:    2.05617 elapsed seconds
Timing for main: time 2014-03-10_14:10:00 on domain   1:    2.06639 elapsed seconds
Timing for main: time 2014-03-10_14:11:00 on domain   1:    2.04924 elapsed seconds
Timing for main: time 2014-03-10_14:12:00 on domain   1:   18.65914 elapsed seconds
Timing for main: time 2014-03-10_14:13:00 on domain   1:    2.78116 elapsed seconds
Timing for main: time 2014-03-10_14:14:00 on domain   1:    2.07574 elapsed seconds
Timing for main: time 2014-03-10_14:15:00 on domain   1:    2.47038 elapsed seconds
Timing for main: time 2014-03-10_14:16:00 on domain   1:    2.24474 elapsed seconds
Timing for main: time 2014-03-10_14:17:00 on domain   1:    2.07923 elapsed seconds
Timing for main: time 2014-03-10_14:18:00 on domain   1:   18.67355 elapsed seconds
Timing for main: time 2014-03-10_14:19:00 on domain   1:    3.13402 elapsed seconds
Timing for main: time 2014-03-10_14:20:00 on domain   1:    2.05893 elapsed seconds
Timing for main: time 2014-03-10_14:21:00 on domain   1:    2.04909 elapsed seconds
Timing for main: time 2014-03-10_14:22:00 on domain   1:    2.55231 elapsed seconds
Timing for main: time 2014-03-10_14:23:00 on domain   1:    2.05496 elapsed seconds
Timing for main: time 2014-03-10_14:24:00 on domain   1:   18.45079 elapsed seconds
Timing for main: time 2014-03-10_14:25:00 on domain   1:    2.84527 elapsed seconds
Timing for main: time 2014-03-10_14:26:00 on domain   1:    2.04988 elapsed seconds
Timing for main: time 2014-03-10_14:27:00 on domain   1:    2.04897 elapsed seconds
Timing for main: time 2014-03-10_14:28:00 on domain   1:    2.05747 elapsed seconds
Timing for main: time 2014-03-10_14:29:00 on domain   1:    2.05153 elapsed seconds
Timing for main: time 2014-03-10_14:30:00 on domain   1:   18.96456 elapsed seconds
Timing for main: time 2014-03-10_14:31:00 on domain   1:    3.34516 elapsed seconds
Timing for main: time 2014-03-10_14:32:00 on domain   1:    2.09391 elapsed seconds
Timing for main: time 2014-03-10_14:33:00 on domain   1:    2.05141 elapsed seconds
Timing for main: time 2014-03-10_14:34:00 on domain   1:    2.05397 elapsed seconds
Timing for main: time 2014-03-10_14:35:00 on domain   1:    2.07147 elapsed seconds
Timing for main: time 2014-03-10_14:36:00 on domain   1:   18.49078 elapsed seconds
Timing for main: time 2014-03-10_14:37:00 on domain   1:    3.37171 elapsed seconds
Timing for main: time 2014-03-10_14:38:00 on domain   1:    2.08223 elapsed seconds
Timing for main: time 2014-03-10_14:39:00 on domain   1:    2.06002 elapsed seconds
Timing for main: time 2014-03-10_14:40:00 on domain   1:    2.06212 elapsed seconds
Timing for main: time 2014-03-10_14:41:00 on domain   1:    2.05044 elapsed seconds
Timing for main: time 2014-03-10_14:42:00 on domain   1:   18.40241 elapsed seconds
Timing for main: time 2014-03-10_14:43:00 on domain   1:    2.81105 elapsed seconds
Timing for main: time 2014-03-10_14:44:00 on domain   1:    2.04723 elapsed seconds
Timing for main: time 2014-03-10_14:45:00 on domain   1:    2.43931 elapsed seconds
Timing for main: time 2014-03-10_14:46:00 on domain   1:    2.29318 elapsed seconds
Timing for main: time 2014-03-10_14:47:00 on domain   1:    2.06074 elapsed seconds
Timing for main: time 2014-03-10_14:48:00 on domain   1:   18.70047 elapsed seconds
Timing for main: time 2014-03-10_14:49:00 on domain   1:    3.00101 elapsed seconds
Timing for main: time 2014-03-10_14:50:00 on domain   1:    2.08677 elapsed seconds
Timing for main: time 2014-03-10_14:51:00 on domain   1:    2.05066 elapsed seconds
Timing for main: time 2014-03-10_14:52:00 on domain   1:    2.05125 elapsed seconds
Timing for main: time 2014-03-10_14:53:00 on domain   1:    2.05682 elapsed seconds
Timing for main: time 2014-03-10_14:54:00 on domain   1:   18.33221 elapsed seconds
Timing for main: time 2014-03-10_14:55:00 on domain   1:    2.84581 elapsed seconds
Timing for main: time 2014-03-10_14:56:00 on domain   1:    2.04488 elapsed seconds
Timing for main: time 2014-03-10_14:57:00 on domain   1:    2.05145 elapsed seconds
Timing for main: time 2014-03-10_14:58:00 on domain   1:    2.04825 elapsed seconds
Timing for main: time 2014-03-10_14:59:00 on domain   1:    2.04748 elapsed seconds
Timing for main: time 2014-03-10_15:00:00 on domain   1:   18.88712 elapsed seconds
Timing for Writing wrfout_d01_2014-03-10_15:00:00 for domain        1:   11.64291 elapsed seconds
Timing for Writing restart for domain        1:   18.58521 elapsed seconds
Timing for main: time 2014-03-10_15:01:00 on domain   1:   32.05077 elapsed seconds
Timing for main: time 2014-03-10_15:02:00 on domain   1:    2.00150 elapsed seconds
Timing for main: time 2014-03-10_15:03:00 on domain   1:    2.00054 elapsed seconds
Timing for main: time 2014-03-10_15:04:00 on domain   1:    2.00018 elapsed seconds
Timing for main: time 2014-03-10_15:05:00 on domain   1:    2.01382 elapsed seconds
Timing for main: time 2014-03-10_15:06:00 on domain   1:   17.95263 elapsed seconds
Timing for main: time 2014-03-10_15:07:00 on domain   1:    2.92707 elapsed seconds
Timing for main: time 2014-03-10_15:08:00 on domain   1:    2.06204 elapsed seconds
Timing for main: time 2014-03-10_15:09:00 on domain   1:    2.05061 elapsed seconds
Timing for main: time 2014-03-10_15:10:00 on domain   1:    2.10172 elapsed seconds
Timing for main: time 2014-03-10_15:11:00 on domain   1:    2.06810 elapsed seconds
Timing for main: time 2014-03-10_15:12:00 on domain   1:   18.49043 elapsed seconds
Timing for main: time 2014-03-10_15:13:00 on domain   1:    2.65829 elapsed seconds
Timing for main: time 2014-03-10_15:14:00 on domain   1:    2.05389 elapsed seconds
Timing for main: time 2014-03-10_15:15:00 on domain   1:    2.46611 elapsed seconds
Timing for main: time 2014-03-10_15:16:00 on domain   1:    2.25433 elapsed seconds
Timing for main: time 2014-03-10_15:17:00 on domain   1:    2.05073 elapsed seconds
Timing for main: time 2014-03-10_15:18:00 on domain   1:   18.83193 elapsed seconds
Timing for main: time 2014-03-10_15:19:00 on domain   1:    2.78448 elapsed seconds
Timing for main: time 2014-03-10_15:20:00 on domain   1:    2.07041 elapsed seconds
Timing for main: time 2014-03-10_15:21:00 on domain   1:    2.05334 elapsed seconds
Timing for main: time 2014-03-10_15:22:00 on domain   1:    2.06687 elapsed seconds
Timing for main: time 2014-03-10_15:23:00 on domain   1:    2.06366 elapsed seconds
Timing for main: time 2014-03-10_15:24:00 on domain   1:   18.69308 elapsed seconds
Timing for main: time 2014-03-10_15:25:00 on domain   1:    2.65916 elapsed seconds
[...]
Timing for main: time 2014-03-17_08:10:00 on domain   1:    1.88609 elapsed seconds
Timing for main: time 2014-03-17_08:11:00 on domain   1:    1.87655 elapsed seconds
Timing for main: time 2014-03-17_08:12:00 on domain   1:   18.13569 elapsed seconds
Timing for main: time 2014-03-17_08:13:00 on domain   1:    3.30744 elapsed seconds
Timing for main: time 2014-03-17_08:14:00 on domain   1:    1.88214 elapsed seconds
Timing for main: time 2014-03-17_08:15:00 on domain   1:    2.20180 elapsed seconds
Timing for main: time 2014-03-17_08:16:00 on domain   1:    1.97414 elapsed seconds
Timing for main: time 2014-03-17_08:17:00 on domain   1:    1.87942 elapsed seconds
Timing for main: time 2014-03-17_08:18:00 on domain   1:   18.14232 elapsed seconds
Timing for main: time 2014-03-17_08:19:00 on domain   1:    3.31621 elapsed seconds
Timing for main: time 2014-03-17_08:20:00 on domain   1:    1.88638 elapsed seconds
Timing for main: time 2014-03-17_08:21:00 on domain   1:    1.91435 elapsed seconds
Timing for main: time 2014-03-17_08:22:00 on domain   1:    1.87961 elapsed seconds
Timing for main: time 2014-03-17_08:23:00 on domain   1:    1.88085 elapsed seconds
Timing for main: time 2014-03-17_08:24:00 on domain   1:   18.21272 elapsed seconds
Timing for main: time 2014-03-17_08:25:00 on domain   1:    3.30659 elapsed seconds
Timing for main: time 2014-03-17_08:26:00 on domain   1:    1.88401 elapsed seconds
Timing for main: time 2014-03-17_08:27:00 on domain   1:    1.87894 elapsed seconds
Timing for main: time 2014-03-17_08:28:00 on domain   1:    1.89021 elapsed seconds
Timing for main: time 2014-03-17_08:29:00 on domain   1:    1.88322 elapsed seconds
Timing for main: time 2014-03-17_08:30:00 on domain   1:   18.50020 elapsed seconds
Timing for main: time 2014-03-17_08:31:00 on domain   1:    3.47620 elapsed seconds
Timing for main: time 2014-03-17_08:32:00 on domain   1:    1.95856 elapsed seconds
Timing for main: time 2014-03-17_08:33:00 on domain   1:    1.92952 elapsed seconds
Timing for main: time 2014-03-17_08:34:00 on domain   1:    1.93522 elapsed seconds
Timing for main: time 2014-03-17_08:35:00 on domain   1:    1.93875 elapsed seconds
Timing for main: time 2014-03-17_08:36:00 on domain   1:   18.20647 elapsed seconds
Timing for main: time 2014-03-17_08:37:00 on domain   1:    3.45601 elapsed seconds
Timing for main: time 2014-03-17_08:38:00 on domain   1:    1.97740 elapsed seconds
Timing for main: time 2014-03-17_08:39:00 on domain   1:    1.92436 elapsed seconds
Timing for main: time 2014-03-17_08:40:00 on domain   1:    1.96529 elapsed seconds
Timing for main: time 2014-03-17_08:41:00 on domain   1:    1.92808 elapsed seconds
Timing for main: time 2014-03-17_08:42:00 on domain   1:   18.23363 elapsed seconds
Timing for main: time 2014-03-17_08:43:00 on domain   1:    3.48468 elapsed seconds
Timing for main: time 2014-03-17_08:44:00 on domain   1:    1.93027 elapsed seconds
Timing for main: time 2014-03-17_08:45:00 on domain   1:    2.24792 elapsed seconds
Timing for main: time 2014-03-17_08:46:00 on domain   1:    2.00120 elapsed seconds
Timing for main: time 2014-03-17_08:47:00 on domain   1:    1.92466 elapsed seconds
Timing for main: time 2014-03-17_08:48:00 on domain   1:   18.24557 elapsed seconds
Timing for main: time 2014-03-17_08:49:00 on domain   1:    3.50293 elapsed seconds
Timing for main: time 2014-03-17_08:50:00 on domain   1:    1.95036 elapsed seconds
Timing for main: time 2014-03-17_08:51:00 on domain   1:    1.93249 elapsed seconds
Timing for main: time 2014-03-17_08:52:00 on domain   1:    1.93040 elapsed seconds
Timing for main: time 2014-03-17_08:53:00 on domain   1:    1.92920 elapsed seconds
Timing for main: time 2014-03-17_08:54:00 on domain   1:   18.29903 elapsed seconds
Timing for main: time 2014-03-17_08:55:00 on domain   1:    3.49443 elapsed seconds
Timing for main: time 2014-03-17_08:56:00 on domain   1:    1.92772 elapsed seconds
Timing for main: time 2014-03-17_08:57:00 on domain   1:    1.96064 elapsed seconds
Timing for main: time 2014-03-17_08:58:00 on domain   1:    1.92648 elapsed seconds
Timing for main: time 2014-03-17_08:59:00 on domain   1:    1.94618 elapsed seconds
Timing for main: time 2014-03-17_09:00:00 on domain   1:   18.47486 elapsed seconds
Timing for Writing wrfout_d01_2014-03-17_09:00:00 for domain        1:   12.42544 elapsed seconds
Timing for Writing restart for domain        1:   18.64902 elapsed seconds
Timing for main: time 2014-03-17_09:01:00 on domain   1:   32.77577 elapsed seconds
Timing for main: time 2014-03-17_09:02:00 on domain   1:    1.90832 elapsed seconds
Timing for main: time 2014-03-17_09:03:00 on domain   1:    1.93604 elapsed seconds
Timing for main: time 2014-03-17_09:04:00 on domain   1:    1.91958 elapsed seconds
Timing for main: time 2014-03-17_09:05:00 on domain   1:    1.92085 elapsed seconds
Timing for main: time 2014-03-17_09:06:00 on domain   1:   17.87970 elapsed seconds
Timing for main: time 2014-03-17_09:07:00 on domain   1:    3.32638 elapsed seconds
Timing for main: time 2014-03-17_09:08:00 on domain   1:    1.96526 elapsed seconds
Timing for main: time 2014-03-17_09:09:00 on domain   1:    1.95738 elapsed seconds
Timing for main: time 2014-03-17_09:10:00 on domain   1:    2.00609 elapsed seconds
Timing for main: time 2014-03-17_09:11:00 on domain   1:    1.96459 elapsed seconds
Timing for main: time 2014-03-17_09:12:00 on domain   1:   18.31724 elapsed seconds
Timing for main: time 2014-03-17_09:13:00 on domain   1:    3.58801 elapsed seconds
Timing for main: time 2014-03-17_09:14:00 on domain   1:    1.96252 elapsed seconds
Timing for main: time 2014-03-17_09:15:00 on domain   1:    2.25835 elapsed seconds
Timing for main: time 2014-03-17_09:16:00 on domain   1:    2.10588 elapsed seconds
Timing for main: time 2014-03-17_09:17:00 on domain   1:    1.96186 elapsed seconds
Timing for main: time 2014-03-17_09:18:00 on domain   1:   18.28515 elapsed seconds
Timing for main: time 2014-03-17_09:19:00 on domain   1:    3.59814 elapsed seconds
Timing for main: time 2014-03-17_09:20:00 on domain   1:    1.98000 elapsed seconds
Timing for main: time 2014-03-17_09:21:00 on domain   1:    1.96346 elapsed seconds
Timing for main: time 2014-03-17_09:22:00 on domain   1:    1.98589 elapsed seconds
Timing for main: time 2014-03-17_09:23:00 on domain   1:    1.95988 elapsed seconds
Timing for main: time 2014-03-17_09:24:00 on domain   1:   18.32582 elapsed seconds
Timing for main: time 2014-03-17_09:25:00 on domain   1:    3.59050 elapsed seconds
Timing for main: time 2014-03-17_09:26:00 on domain   1:    1.95134 elapsed seconds
Timing for main: time 2014-03-17_09:27:00 on domain   1:    1.95394 elapsed seconds
Timing for main: time 2014-03-17_09:28:00 on domain   1:    1.96879 elapsed seconds
Timing for main: time 2014-03-17_09:29:00 on domain   1:    1.96002 elapsed seconds
Timing for main: time 2014-03-17_09:30:00 on domain   1:   18.63371 elapsed seconds
Timing for main: time 2014-03-17_09:31:00 on domain   1:    3.56851 elapsed seconds
Timing for main: time 2014-03-17_09:32:00 on domain   1:    1.96766 elapsed seconds
Timing for main: time 2014-03-17_09:33:00 on domain   1:    1.96499 elapsed seconds
Timing for main: time 2014-03-17_09:34:00 on domain   1:    1.97712 elapsed seconds
Timing for main: time 2014-03-17_09:35:00 on domain   1:    1.98445 elapsed seconds
Timing for main: time 2014-03-17_09:36:00 on domain   1:   18.32389 elapsed seconds
Timing for main: time 2014-03-17_09:37:00 on domain   1:    3.59755 elapsed seconds
Timing for main: time 2014-03-17_09:38:00 on domain   1:    1.96435 elapsed seconds
Timing for main: time 2014-03-17_09:39:00 on domain   1:    1.96609 elapsed seconds
Timing for main: time 2014-03-17_09:40:00 on domain   1:    2.06978 elapsed seconds
Timing for main: time 2014-03-17_09:41:00 on domain   1:    1.96314 elapsed seconds
Timing for main: time 2014-03-17_09:42:00 on domain   1:   18.36310 elapsed seconds
Timing for main: time 2014-03-17_09:43:00 on domain   1:    3.65586 elapsed seconds
Timing for main: time 2014-03-17_09:44:00 on domain   1:    1.96843 elapsed seconds
Timing for main: time 2014-03-17_09:45:00 on domain   1:    2.21237 elapsed seconds
Timing for main: time 2014-03-17_09:46:00 on domain   1:    2.29488 elapsed seconds
Timing for main: time 2014-03-17_09:47:00 on domain   1:    1.96200 elapsed seconds
Timing for main: time 2014-03-17_09:48:00 on domain   1:   18.33211 elapsed seconds
Timing for main: time 2014-03-17_09:49:00 on domain   1:    3.82223 elapsed seconds
Timing for main: time 2014-03-17_09:50:00 on domain   1:    1.99169 elapsed seconds
Timing for main: time 2014-03-17_09:51:00 on domain   1:    1.95500 elapsed seconds
Timing for main: time 2014-03-17_09:52:00 on domain   1:    1.97411 elapsed seconds
Timing for main: time 2014-03-17_09:53:00 on domain   1:    1.96790 elapsed seconds
Timing for main: time 2014-03-17_09:54:00 on domain   1:   18.46403 elapsed seconds
Timing for main: time 2014-03-17_09:55:00 on domain   1:    3.81624 elapsed seconds
Timing for main: time 2014-03-17_09:56:00 on domain   1:    1.96485 elapsed seconds
Timing for main: time 2014-03-17_09:57:00 on domain   1:    1.96313 elapsed seconds
Timing for main: time 2014-03-17_09:58:00 on domain   1:    1.98482 elapsed seconds
Timing for main: time 2014-03-17_09:59:00 on domain   1:    1.96820 elapsed seconds
Timing for main: time 2014-03-17_10:00:00 on domain   1:   18.77567 elapsed seconds
Timing for Writing wrfout_d01_2014-03-17_10:00:00 for domain        1:   13.34095 elapsed seconds
Timing for main: time 2014-03-17_10:01:00 on domain   1:   15.14447 elapsed seconds
Timing for main: time 2014-03-17_10:02:00 on domain   1:    1.87861 elapsed seconds
Timing for main: time 2014-03-17_10:03:00 on domain   1:    1.89094 elapsed seconds
Timing for main: time 2014-03-17_10:04:00 on domain   1:    1.88476 elapsed seconds
Timing for main: time 2014-03-17_10:05:00 on domain   1:    1.88647 elapsed seconds
Timing for main: time 2014-03-17_10:06:00 on domain   1:   18.54467 elapsed seconds
Timing for main: time 2014-03-17_10:07:00 on domain   1:    3.92969 elapsed seconds
Timing for main: time 2014-03-17_10:08:00 on domain   1:    1.93766 elapsed seconds
Timing for main: time 2014-03-17_10:09:00 on domain   1:    1.93324 elapsed seconds
Timing for main: time 2014-03-17_10:10:00 on domain   1:    1.93466 elapsed seconds
Timing for main: time 2014-03-17_10:11:00 on domain   1:    1.93423 elapsed seconds
Timing for main: time 2014-03-17_10:12:00 on domain   1:   18.46844 elapsed seconds
Timing for main: time 2014-03-17_10:13:00 on domain   1:    4.01621 elapsed seconds
Timing for main: time 2014-03-17_10:14:00 on domain   1:    1.92367 elapsed seconds
Timing for main: time 2014-03-17_10:15:00 on domain   1:    2.32506 elapsed seconds
Timing for main: time 2014-03-17_10:16:00 on domain   1:    2.14418 elapsed seconds
Timing for main: time 2014-03-17_10:17:00 on domain   1:    1.92934 elapsed seconds
Timing for main: time 2014-03-17_10:18:00 on domain   1:   18.52625 elapsed seconds
Timing for main: time 2014-03-17_10:19:00 on domain   1:    4.21323 elapsed seconds
Timing for main: time 2014-03-17_10:20:00 on domain   1:    1.93826 elapsed seconds
Timing for main: time 2014-03-17_10:21:00 on domain   1:    1.92389 elapsed seconds
Timing for main: time 2014-03-17_10:22:00 on domain   1:    1.92625 elapsed seconds
Timing for main: time 2014-03-17_10:23:00 on domain   1:    1.93472 elapsed seconds
Timing for main: time 2014-03-17_10:24:00 on domain   1:   18.41417 elapsed seconds
Timing for main: time 2014-03-17_10:25:00 on domain   1:    3.91411 elapsed seconds
Timing for main: time 2014-03-17_10:26:00 on domain   1:    1.92531 elapsed seconds
Timing for main: time 2014-03-17_10:27:00 on domain   1:    1.93037 elapsed seconds
Timing for main: time 2014-03-17_10:28:00 on domain   1:    1.91818 elapsed seconds
Timing for main: time 2014-03-17_10:29:00 on domain   1:    1.93304 elapsed seconds
Timing for main: time 2014-03-17_10:30:00 on domain   1:   18.96146 elapsed seconds
Timing for main: time 2014-03-17_10:31:00 on domain   1:    4.76127 elapsed seconds
Timing for main: time 2014-03-17_10:32:00 on domain   1:    2.01714 elapsed seconds
Timing for main: time 2014-03-17_10:33:00 on domain   1:    2.00904 elapsed seconds
Timing for main: time 2014-03-17_10:34:00 on domain   1:    2.01882 elapsed seconds
Timing for main: time 2014-03-17_10:35:00 on domain   1:    2.02009 elapsed seconds
Timing for main: time 2014-03-17_10:36:00 on domain   1:   18.38127 elapsed seconds
Timing for main: time 2014-03-17_10:37:00 on domain   1:    4.33362 elapsed seconds
Timing for main: time 2014-03-17_10:38:00 on domain   1:    2.02550 elapsed seconds
Timing for main: time 2014-03-17_10:39:00 on domain   1:    2.01098 elapsed seconds
Timing for main: time 2014-03-17_10:40:00 on domain   1:    2.05133 elapsed seconds
Timing for main: time 2014-03-17_10:41:00 on domain   1:    2.03148 elapsed seconds
Timing for main: time 2014-03-17_10:42:00 on domain   1:   18.35524 elapsed seconds
Timing for main: time 2014-03-17_10:43:00 on domain   1:    4.37879 elapsed seconds
Timing for main: time 2014-03-17_10:44:00 on domain   1:    2.00587 elapsed seconds
Timing for main: time 2014-03-17_10:45:00 on domain   1:    2.42984 elapsed seconds
Timing for main: time 2014-03-17_10:46:00 on domain   1:    2.24829 elapsed seconds
Timing for main: time 2014-03-17_10:47:00 on domain   1:    2.00137 elapsed seconds
Timing for main: time 2014-03-17_10:48:00 on domain   1:   18.59998 elapsed seconds
Timing for main: time 2014-03-17_10:49:00 on domain   1:    4.53105 elapsed seconds
Timing for main: time 2014-03-17_10:50:00 on domain   1:    2.02705 elapsed seconds
Timing for main: time 2014-03-17_10:51:00 on domain   1:    2.02052 elapsed seconds
Timing for main: time 2014-03-17_10:52:00 on domain   1:    2.01045 elapsed seconds
Timing for main: time 2014-03-17_10:53:00 on domain   1:    2.00835 elapsed seconds
Timing for main: time 2014-03-17_10:54:00 on domain   1:   18.37267 elapsed seconds
Timing for main: time 2014-03-17_10:55:00 on domain   1:    4.46832 elapsed seconds
Timing for main: time 2014-03-17_10:56:00 on domain   1:    2.04888 elapsed seconds
Timing for main: time 2014-03-17_10:57:00 on domain   1:    2.01067 elapsed seconds
Timing for main: time 2014-03-17_10:58:00 on domain   1:    2.00648 elapsed seconds
Timing for main: time 2014-03-17_10:59:00 on domain   1:    2.02035 elapsed seconds
Timing for main: time 2014-03-17_11:00:00 on domain   1:   18.93493 elapsed seconds
Timing for Writing wrfout_d01_2014-03-17_11:00:00 for domain        1:   13.10320 elapsed seconds
Timing for main: time 2014-03-17_11:01:00 on domain   1:   14.91225 elapsed seconds
Timing for main: time 2014-03-17_11:02:00 on domain   1:    2.01839 elapsed seconds
Timing for main: time 2014-03-17_11:03:00 on domain   1:    2.01382 elapsed seconds
Timing for main: time 2014-03-17_11:04:00 on domain   1:    2.01960 elapsed seconds
Timing for main: time 2014-03-17_11:05:00 on domain   1:    2.02538 elapsed seconds
Timing for main: time 2014-03-17_11:06:00 on domain   1:   18.51851 elapsed seconds
Timing for main: time 2014-03-17_11:07:00 on domain   1:    4.46856 elapsed seconds
Timing for main: time 2014-03-17_11:08:00 on domain   1:    2.08231 elapsed seconds
Timing for main: time 2014-03-17_11:09:00 on domain   1:    2.08324 elapsed seconds
Timing for main: time 2014-03-17_11:10:00 on domain   1:    2.07732 elapsed seconds
Timing for main: time 2014-03-17_11:11:00 on domain   1:    2.07629 elapsed seconds
Timing for main: time 2014-03-17_11:12:00 on domain   1:   18.44007 elapsed seconds
Timing for main: time 2014-03-17_11:13:00 on domain   1:    4.49861 elapsed seconds
Timing for main: time 2014-03-17_11:14:00 on domain   1:    2.04768 elapsed seconds
Timing for main: time 2014-03-17_11:15:00 on domain   1:    2.49912 elapsed seconds
Timing for main: time 2014-03-17_11:16:00 on domain   1:    2.30626 elapsed seconds
Timing for main: time 2014-03-17_11:17:00 on domain   1:    2.07746 elapsed seconds
Timing for main: time 2014-03-17_11:18:00 on domain   1:   18.61920 elapsed seconds
Timing for main: time 2014-03-17_11:19:00 on domain   1:    4.57568 elapsed seconds
Timing for main: time 2014-03-17_11:20:00 on domain   1:    2.07828 elapsed seconds
Timing for main: time 2014-03-17_11:21:00 on domain   1:    2.07538 elapsed seconds
Timing for main: time 2014-03-17_11:22:00 on domain   1:    2.06541 elapsed seconds
Timing for main: time 2014-03-17_11:23:00 on domain   1:    2.06883 elapsed seconds
Timing for main: time 2014-03-17_11:24:00 on domain   1:   18.35110 elapsed seconds
Timing for main: time 2014-03-17_11:25:00 on domain   1:    4.47499 elapsed seconds
Timing for main: time 2014-03-17_11:26:00 on domain   1:    2.06824 elapsed seconds
Timing for main: time 2014-03-17_11:27:00 on domain   1:    2.08657 elapsed seconds
Timing for main: time 2014-03-17_11:28:00 on domain   1:    2.06787 elapsed seconds
Timing for main: time 2014-03-17_11:29:00 on domain   1:    2.06713 elapsed seconds
Timing for main: time 2014-03-17_11:30:00 on domain   1:   19.01636 elapsed seconds
Timing for main: time 2014-03-17_11:31:00 on domain   1:    4.69027 elapsed seconds
Timing for main: time 2014-03-17_11:32:00 on domain   1:    2.07007 elapsed seconds
Timing for main: time 2014-03-17_11:33:00 on domain   1:    2.10032 elapsed seconds
Timing for main: time 2014-03-17_11:34:00 on domain   1:    2.08076 elapsed seconds
Timing for main: time 2014-03-17_11:35:00 on domain   1:    2.11046 elapsed seconds
Timing for main: time 2014-03-17_11:36:00 on domain   1:   18.31658 elapsed seconds
Timing for main: time 2014-03-17_11:37:00 on domain   1:    4.49186 elapsed seconds
Timing for main: time 2014-03-17_11:38:00 on domain   1:    2.10880 elapsed seconds
Timing for main: time 2014-03-17_11:39:00 on domain   1:    2.08912 elapsed seconds
Timing for main: time 2014-03-17_11:40:00 on domain   1:    2.08345 elapsed seconds
Timing for main: time 2014-03-17_11:41:00 on domain   1:    2.08579 elapsed seconds
Timing for main: time 2014-03-17_11:42:00 on domain   1:   18.27488 elapsed seconds
Timing for main: time 2014-03-17_11:43:00 on domain   1:    4.47277 elapsed seconds
Timing for main: time 2014-03-17_11:44:00 on domain   1:    2.09670 elapsed seconds
Timing for main: time 2014-03-17_11:45:00 on domain   1:    2.47503 elapsed seconds
Timing for main: time 2014-03-17_11:46:00 on domain   1:    2.33184 elapsed seconds
Timing for main: time 2014-03-17_11:47:00 on domain   1:    2.07914 elapsed seconds
Timing for main: time 2014-03-17_11:48:00 on domain   1:   18.62546 elapsed seconds
Timing for main: time 2014-03-17_11:49:00 on domain   1:    4.51019 elapsed seconds
Timing for main: time 2014-03-17_11:50:00 on domain   1:    2.10195 elapsed seconds
Timing for main: time 2014-03-17_11:51:00 on domain   1:    2.08722 elapsed seconds
Timing for main: time 2014-03-17_11:52:00 on domain   1:    2.08524 elapsed seconds
Timing for main: time 2014-03-17_11:53:00 on domain   1:    2.08277 elapsed seconds
Timing for main: time 2014-03-17_11:54:00 on domain   1:   18.23834 elapsed seconds
Timing for main: time 2014-03-17_11:55:00 on domain   1:    4.55332 elapsed seconds
Timing for main: time 2014-03-17_11:56:00 on domain   1:    2.08190 elapsed seconds
Timing for main: time 2014-03-17_11:57:00 on domain   1:    2.10492 elapsed seconds
Timing for main: time 2014-03-17_11:58:00 on domain   1:    2.07848 elapsed seconds
Timing for main: time 2014-03-17_11:59:00 on domain   1:    2.09396 elapsed seconds
Timing for main: time 2014-03-17_12:00:00 on domain   1:   18.94743 elapsed seconds
Timing for Writing wrfout_d01_2014-03-17_12:00:00 for domain        1:   13.02398 elapsed seconds
Timing for Writing restart for domain        1:   18.51825 elapsed seconds
